 ****** HSPICE -- H-2013.03 64-BIT (Mar  7 2013) win64 ******                   
  Copyright (C) 2013 Synopsys, Inc. All Rights Reserved.                        
  Unpublished-rights reserved under US copyright laws.
  This program is protected by law and is subject to the
  terms and conditions of the license agreement from Synopsys.
  Use of this program is your acceptance to be bound by the
  license agreement. HSPICE is the trademark of Synopsys, Inc.
  Input File: nandtest1.sp                                                      
  Command line options: -i nandtest1.sp -o nandtest1.lis
  lic:  
  lic: FLEXlm: v10.9.8 
  lic: USER:   Dell                 HOSTNAME: DESKTOP-O3DHVG1 
  lic: HOSTID: "a0d37a293ca8 28f10e041fd4 a0d37a293ca4 a0d37a293ca5" PID:      6
 988 
  lic: Using FLEXlm license file: 
  lic: C:\synopsys\Hspice_H-2013.03\lic.dat\lic.lic 
  lic: Checkout 1 hspice 
  lic: License/Maintenance for hspice will expire on 31-dec-2019/2019.12 
  lic: NODE LOCKED license on hostid "a0d37a293ca8 28f10e041fd4 a0d37a293ca4 a0d
 37a293ca5" 
  lic:   
 Init: read install configuration file: C:\synopsys\Hspice_H-2013.03\meta.cfg
 scientific notation:
 a=10**-18  f=10**-15  p=10**-12  n=10**-9  u=10**-6
 m=10**-3   k=10**3    x=10**6    g=10**9 
1****** HSPICE -- H-2013.03 64-BIT (Mar  7 2013) win64 ******                   
 ******  
 'inverter'

  ******  circuit name directory
 circuit number to circuit name directory
   number circuitname                     definition         multiplier
        0 main circuit


 circuit parameter definitions
  parameter          =  value 

     0:temp                                                    = 2.700e+01      
     0:m_cnt                                                   = 1.000e+00      
     0:wg                                                      = 4.000e-09      
     0:cb                                                      = 4.000e-11      
     0:lg                                                      = 1.000e-08      
     0:lgef                                                    = 1.000e-07      
     0:vfn                                                     = 0.000e+00      
     0:vfp                                                     = 0.000e+00      
     0:m                                                       = 1.100e+01      
     0:n                                                       = 3.000e+00      
     0:hox                                                     = 4.000e-09      
     1:tox                                                     = 4.000e-09      
     1:csub                                                    = 4.000e-11      
     1:pitch                                                   = 2.000e-08      
     1:n1                                                      = 1.100e+01      
     1:n2                                                      = 3.000e+00      
     1:vfbp                                                    = 0.000e+00      
     1:kgate                                                   = 1.600e+01      
     1:dout                                                    = 0.000e+00      
     1:sout                                                    = 0.000e+00      
     1:tubes                                                   = 1.000e+00      
     1:lch                                                     = 1.000e-08      
     1:lgeff                                                   = 1.000e-07      
     1:lss                                                     = 3.200e-08      
     1:ldd                                                     = 3.200e-08      
     3:tox                                                     = 4.000e-09      
     3:csub                                                    = 4.000e-11      
     3:vfbn                                                    = 0.000e+00      
     3:pitch                                                   = 2.000e-08      
     3:n1                                                      = 1.100e+01      
     3:n2                                                      = 3.000e+00      
     3:kgate                                                   = 1.600e+01      
     3:dout                                                    = 0.000e+00      
     3:sout                                                    = 0.000e+00      
     3:tubes                                                   = 1.000e+00      
     3:lch                                                     = 1.000e-08      
     3:lgeff                                                   = 1.000e-07      
     3:lss                                                     = 3.200e-08      
     3:ldd                                                     = 3.200e-08      




 constants  - tnom         kt           vt           gapsi        ni
            2.9815e+02   4.1163e-21   2.5692e-02   1.1156e+00   1.2565e+16 

 **warning**  associated with encrypted block(s) were suppressed due to encrypted content

1****** HSPICE -- H-2013.03 64-BIT (Mar  7 2013) win64 ******                   
 ******  
 'inverter'

  ******  circuit element summary tnom=  25.000 temp=  25.000 *****


 **** independent sources

     name         node1        node2      dc volt    ac mag    ac phase    type
  vdd  vdd               0                  1.000e+00  0.000e+00  0.000e+00 dc   
  vin1  in1               0                  1.000e+00  0.000e+00  0.000e+00 dc   
  vin2  in2               0                  1.000e+00  0.000e+00  0.000e+00 dc   


 **** subcircuit calls
    name        subcircuit         external nodes


         0:xcnt1    pcnfet          0:out         0:in1         0:vdd     
                               0:vdd     


         0:xcnt2    pcnfet          0:out         0:in2         0:vdd     
                               0:vdd     


         0:xcnt3    ncnfet          0:out         0:in1         0:11      
                               0:11      


         0:xcnt4    ncnfet          0:11          0:in2         0:0       
                               0:0       


  
1****** HSPICE -- H-2013.03 64-BIT (Mar  7 2013) win64 ******                   
 ******  
 'inverter'

  ******  element node table
                                  
 0                vdd  vin1 vin2  
 in1              vin1            
 in2              vin2            
 vdd              vdd             
  **warning** PIVOT option setting is simplified, pivot = 13 is obsolete,
              automatically switch to pivot = 1.
 *****************************************************************
 ******  option summary
 ******
 runlvl  = 3         bypass  = 2         
  Opening plot unit= 79
 file=nandtest1.pa0

 ** Warning ** Convergence problem in the first
               dc sweep value, Pseudo tran is tried.

  *** initial damped pseudo transient completed. ***
  *** final try started ***
 **info** remove gshunt failed
  **info** try to load final result like nodeset
  *** final try succeeded *** 
 ******  
 'inverter'

  ******  dc transfer curves tnom=  25.000 temp=  25.000 *****

   *** source        0:vin2 =  0.000e+00       ***

x

        volt    voltage      voltage      voltage    
                    in1          in2          out    
  0.0000e+00    0.000e+00    0.000e+00    9.998e-01  
  1.0000e-02    1.000e-02    0.000e+00    1.000e-00  
  2.0000e-02    2.000e-02    0.000e+00    1.000e-00  
  3.0000e-02    3.000e-02    0.000e+00    1.000e-00  
  4.0000e-02    4.000e-02    0.000e+00    1.000e-00  
  5.0000e-02    5.000e-02    0.000e+00    1.000e-00  
  6.0000e-02    6.000e-02    0.000e+00    1.000e-00  
  7.0000e-02    7.000e-02    0.000e+00    1.000e-00  
  8.0000e-02    8.000e-02    0.000e+00    1.000e-00  
  9.0000e-02    9.000e-02    0.000e+00    1.000e-00  
  1.0000e-01    1.000e-01    0.000e+00    1.000e-00  
  1.1000e-01    1.100e-01    0.000e+00    1.000e-00  
  1.2000e-01    1.200e-01    0.000e+00    1.000e-00  
  1.3000e-01    1.300e-01    0.000e+00    1.000e-00  
  1.4000e-01    1.400e-01    0.000e+00    1.000e-00  
  1.5000e-01    1.500e-01    0.000e+00    1.000e-00  
  1.6000e-01    1.600e-01    0.000e+00    1.000e-00  
  1.7000e-01    1.700e-01    0.000e+00    1.000e-00  
  1.8000e-01    1.800e-01    0.000e+00    1.000e-00  
  1.9000e-01    1.900e-01    0.000e+00    1.000e-00  
  2.0000e-01    2.000e-01    0.000e+00    1.000e-00  
  2.1000e-01    2.100e-01    0.000e+00    1.000e-00  
  2.2000e-01    2.200e-01    0.000e+00    1.000e-00  
  2.3000e-01    2.300e-01    0.000e+00    1.000e-00  
  2.4000e-01    2.400e-01    0.000e+00    1.000e-00  
  2.5000e-01    2.500e-01    0.000e+00    1.000e-00  
  2.6000e-01    2.600e-01    0.000e+00    1.000e-00  
  2.7000e-01    2.700e-01    0.000e+00    1.000e-00  
  2.8000e-01    2.800e-01    0.000e+00    1.000e-00  
  2.9000e-01    2.900e-01    0.000e+00    1.000e-00  
  3.0000e-01    3.000e-01    0.000e+00    1.000e-00  
  3.1000e-01    3.100e-01    0.000e+00    1.000e-00  
  3.2000e-01    3.200e-01    0.000e+00    1.000e-00  
  3.3000e-01    3.300e-01    0.000e+00    1.000e-00  
  3.4000e-01    3.400e-01    0.000e+00    1.000e-00  
  3.5000e-01    3.500e-01    0.000e+00    1.000e-00  
  3.6000e-01    3.600e-01    0.000e+00    1.000e-00  
  3.7000e-01    3.700e-01    0.000e+00    1.000e-00  
  3.8000e-01    3.800e-01    0.000e+00    1.000e-00  
  3.9000e-01    3.900e-01    0.000e+00    1.000e-00  
  4.0000e-01    4.000e-01    0.000e+00    1.000e-00  
  4.1000e-01    4.100e-01    0.000e+00    1.000e-00  
  4.2000e-01    4.200e-01    0.000e+00    1.000e-00  
  4.3000e-01    4.300e-01    0.000e+00    1.000e-00  
  4.4000e-01    4.400e-01    0.000e+00    1.000e-00  
  4.5000e-01    4.500e-01    0.000e+00    1.000e-00  
  4.6000e-01    4.600e-01    0.000e+00    1.000e-00  
  4.7000e-01    4.700e-01    0.000e+00    1.000e-00  
  4.8000e-01    4.800e-01    0.000e+00    1.000e-00  
  4.9000e-01    4.900e-01    0.000e+00    1.000e-00  
  5.0000e-01    5.000e-01    0.000e+00    1.000e-00  
  5.1000e-01    5.100e-01    0.000e+00    1.000e-00  
  5.2000e-01    5.200e-01    0.000e+00    1.000e-00  
  5.3000e-01    5.300e-01    0.000e+00    1.000e-00  
  5.4000e-01    5.400e-01    0.000e+00    1.000e-00  
  5.5000e-01    5.500e-01    0.000e+00    1.000e-00  
  5.6000e-01    5.600e-01    0.000e+00    1.000e-00  
  5.7000e-01    5.700e-01    0.000e+00    1.000e-00  
  5.8000e-01    5.800e-01    0.000e+00    1.000e-00  
  5.9000e-01    5.900e-01    0.000e+00    1.000e-00  
  6.0000e-01    6.000e-01    0.000e+00    1.000e-00  
  6.1000e-01    6.100e-01    0.000e+00    1.000e-00  
  6.2000e-01    6.200e-01    0.000e+00    1.000e-00  
  6.3000e-01    6.300e-01    0.000e+00    1.000e-00  
  6.4000e-01    6.400e-01    0.000e+00    1.000e-00  
  6.5000e-01    6.500e-01    0.000e+00    1.000e-00  
  6.6000e-01    6.600e-01    0.000e+00    1.000e-00  
  6.7000e-01    6.700e-01    0.000e+00    1.000e-00  
  6.8000e-01    6.800e-01    0.000e+00    1.000e-00  
  6.9000e-01    6.900e-01    0.000e+00    1.000e-00  
  7.0000e-01    7.000e-01    0.000e+00    1.000e-00  
  7.1000e-01    7.100e-01    0.000e+00    1.000e-00  
  7.2000e-01    7.200e-01    0.000e+00    1.000e-00  
  7.3000e-01    7.300e-01    0.000e+00    1.000e-00  
  7.4000e-01    7.400e-01    0.000e+00    1.000e-00  
  7.5000e-01    7.500e-01    0.000e+00    1.000e-00  
  7.6000e-01    7.600e-01    0.000e+00    1.000e-00  
  7.7000e-01    7.700e-01    0.000e+00    1.000e-00  
  7.8000e-01    7.800e-01    0.000e+00    1.000e-00  
  7.9000e-01    7.900e-01    0.000e+00    1.000e-00  
  8.0000e-01    8.000e-01    0.000e+00    1.000e-00  
  8.1000e-01    8.100e-01    0.000e+00    1.000e-00  
  8.2000e-01    8.200e-01    0.000e+00    1.000e-00  
  8.3000e-01    8.300e-01    0.000e+00    1.000e-00  
  8.4000e-01    8.400e-01    0.000e+00    1.000e-00  
  8.5000e-01    8.500e-01    0.000e+00    1.000e-00  
  8.6000e-01    8.600e-01    0.000e+00    1.000e-00  
  8.7000e-01    8.700e-01    0.000e+00    1.000e-00  
  8.8000e-01    8.800e-01    0.000e+00    1.000e-00  
  8.9000e-01    8.900e-01    0.000e+00    1.000e-00  
  9.0000e-01    9.000e-01    0.000e+00    1.000e-00  
  9.1000e-01    9.100e-01    0.000e+00    1.000e-00  
  9.2000e-01    9.200e-01    0.000e+00    1.000e-00  
  9.3000e-01    9.300e-01    0.000e+00    1.000e-00  
  9.4000e-01    9.400e-01    0.000e+00    1.000e-00  
  9.5000e-01    9.500e-01    0.000e+00    1.000e-00  
  9.6000e-01    9.600e-01    0.000e+00    1.000e-00  
  9.7000e-01    9.700e-01    0.000e+00    1.000e-00  
  9.8000e-01    9.800e-01    0.000e+00    1.000e-00  
  9.9000e-01    9.900e-01    0.000e+00    1.000e-00  
  1.0000e+00    1.000e+00    0.000e+00    1.000e-00  
y
-----------------------------------------------
 ******  
 'inverter'

  ******  dc transfer curves tnom=  25.000 temp=  25.000 *****

   *** source        0:vin2 =  1.000e-02       ***

x

        volt    voltage      voltage      voltage    
                    in1          in2          out    
  0.0000e+00    0.000e+00    1.000e-02    1.000e-00  
  1.0000e-02    1.000e-02    1.000e-02    1.000e-00  
  2.0000e-02    2.000e-02    1.000e-02    1.000e-00  
  3.0000e-02    3.000e-02    1.000e-02    1.000e-00  
  4.0000e-02    4.000e-02    1.000e-02    1.000e-00  
  5.0000e-02    5.000e-02    1.000e-02    1.000e-00  
  6.0000e-02    6.000e-02    1.000e-02    1.000e-00  
  7.0000e-02    7.000e-02    1.000e-02    1.000e-00  
  8.0000e-02    8.000e-02    1.000e-02    1.000e-00  
  9.0000e-02    9.000e-02    1.000e-02    1.000e-00  
  1.0000e-01    1.000e-01    1.000e-02    1.000e-00  
  1.1000e-01    1.100e-01    1.000e-02    1.000e-00  
  1.2000e-01    1.200e-01    1.000e-02    1.000e-00  
  1.3000e-01    1.300e-01    1.000e-02    1.000e-00  
  1.4000e-01    1.400e-01    1.000e-02    1.000e-00  
  1.5000e-01    1.500e-01    1.000e-02    1.000e-00  
  1.6000e-01    1.600e-01    1.000e-02    1.000e-00  
  1.7000e-01    1.700e-01    1.000e-02    1.000e-00  
  1.8000e-01    1.800e-01    1.000e-02    1.000e-00  
  1.9000e-01    1.900e-01    1.000e-02    1.000e-00  
  2.0000e-01    2.000e-01    1.000e-02    1.000e-00  
  2.1000e-01    2.100e-01    1.000e-02    1.000e-00  
  2.2000e-01    2.200e-01    1.000e-02    1.000e-00  
  2.3000e-01    2.300e-01    1.000e-02    1.000e-00  
  2.4000e-01    2.400e-01    1.000e-02    1.000e-00  
  2.5000e-01    2.500e-01    1.000e-02    1.000e-00  
  2.6000e-01    2.600e-01    1.000e-02    1.000e-00  
  2.7000e-01    2.700e-01    1.000e-02    1.000e-00  
  2.8000e-01    2.800e-01    1.000e-02    1.000e-00  
  2.9000e-01    2.900e-01    1.000e-02    1.000e-00  
  3.0000e-01    3.000e-01    1.000e-02    1.000e-00  
  3.1000e-01    3.100e-01    1.000e-02    1.000e-00  
  3.2000e-01    3.200e-01    1.000e-02    1.000e-00  
  3.3000e-01    3.300e-01    1.000e-02    1.000e-00  
  3.4000e-01    3.400e-01    1.000e-02    1.000e-00  
  3.5000e-01    3.500e-01    1.000e-02    1.000e-00  
  3.6000e-01    3.600e-01    1.000e-02    1.000e-00  
  3.7000e-01    3.700e-01    1.000e-02    1.000e-00  
  3.8000e-01    3.800e-01    1.000e-02    1.000e-00  
  3.9000e-01    3.900e-01    1.000e-02    1.000e-00  
  4.0000e-01    4.000e-01    1.000e-02    1.000e-00  
  4.1000e-01    4.100e-01    1.000e-02    1.000e-00  
  4.2000e-01    4.200e-01    1.000e-02    1.000e-00  
  4.3000e-01    4.300e-01    1.000e-02    1.000e-00  
  4.4000e-01    4.400e-01    1.000e-02    1.000e-00  
  4.5000e-01    4.500e-01    1.000e-02    1.000e-00  
  4.6000e-01    4.600e-01    1.000e-02    1.000e-00  
  4.7000e-01    4.700e-01    1.000e-02    1.000e-00  
  4.8000e-01    4.800e-01    1.000e-02    1.000e-00  
  4.9000e-01    4.900e-01    1.000e-02    1.000e-00  
  5.0000e-01    5.000e-01    1.000e-02    1.000e-00  
  5.1000e-01    5.100e-01    1.000e-02    1.000e-00  
  5.2000e-01    5.200e-01    1.000e-02    1.000e-00  
  5.3000e-01    5.300e-01    1.000e-02    1.000e-00  
  5.4000e-01    5.400e-01    1.000e-02    1.000e-00  
  5.5000e-01    5.500e-01    1.000e-02    1.000e-00  
  5.6000e-01    5.600e-01    1.000e-02    1.000e-00  
  5.7000e-01    5.700e-01    1.000e-02    1.000e-00  
  5.8000e-01    5.800e-01    1.000e-02    1.000e-00  
  5.9000e-01    5.900e-01    1.000e-02    1.000e-00  
  6.0000e-01    6.000e-01    1.000e-02    1.000e-00  
  6.1000e-01    6.100e-01    1.000e-02    1.000e-00  
  6.2000e-01    6.200e-01    1.000e-02    1.000e-00  
  6.3000e-01    6.300e-01    1.000e-02    1.000e-00  
  6.4000e-01    6.400e-01    1.000e-02    1.000e-00  
  6.5000e-01    6.500e-01    1.000e-02    1.000e-00  
  6.6000e-01    6.600e-01    1.000e-02    1.000e-00  
  6.7000e-01    6.700e-01    1.000e-02    1.000e-00  
  6.8000e-01    6.800e-01    1.000e-02    1.000e-00  
  6.9000e-01    6.900e-01    1.000e-02    1.000e-00  
  7.0000e-01    7.000e-01    1.000e-02    1.000e-00  
  7.1000e-01    7.100e-01    1.000e-02    1.000e-00  
  7.2000e-01    7.200e-01    1.000e-02    1.000e-00  
  7.3000e-01    7.300e-01    1.000e-02    1.000e-00  
  7.4000e-01    7.400e-01    1.000e-02    1.000e-00  
  7.5000e-01    7.500e-01    1.000e-02    1.000e-00  
  7.6000e-01    7.600e-01    1.000e-02    1.000e-00  
  7.7000e-01    7.700e-01    1.000e-02    1.000e-00  
  7.8000e-01    7.800e-01    1.000e-02    1.000e-00  
  7.9000e-01    7.900e-01    1.000e-02    1.000e-00  
  8.0000e-01    8.000e-01    1.000e-02    1.000e-00  
  8.1000e-01    8.100e-01    1.000e-02    1.000e-00  
  8.2000e-01    8.200e-01    1.000e-02    1.000e-00  
  8.3000e-01    8.300e-01    1.000e-02    1.000e-00  
  8.4000e-01    8.400e-01    1.000e-02    1.000e-00  
  8.5000e-01    8.500e-01    1.000e-02    1.000e-00  
  8.6000e-01    8.600e-01    1.000e-02    1.000e-00  
  8.7000e-01    8.700e-01    1.000e-02    1.000e-00  
  8.8000e-01    8.800e-01    1.000e-02    1.000e-00  
  8.9000e-01    8.900e-01    1.000e-02    1.000e-00  
  9.0000e-01    9.000e-01    1.000e-02    1.000e-00  
  9.1000e-01    9.100e-01    1.000e-02    1.000e-00  
  9.2000e-01    9.200e-01    1.000e-02    1.000e-00  
  9.3000e-01    9.300e-01    1.000e-02    1.000e-00  
  9.4000e-01    9.400e-01    1.000e-02    1.000e-00  
  9.5000e-01    9.500e-01    1.000e-02    1.000e-00  
  9.6000e-01    9.600e-01    1.000e-02    1.000e-00  
  9.7000e-01    9.700e-01    1.000e-02    1.000e-00  
  9.8000e-01    9.800e-01    1.000e-02    1.000e-00  
  9.9000e-01    9.900e-01    1.000e-02    1.000e-00  
  1.0000e+00    1.000e+00    1.000e-02    1.000e-00  
y
-----------------------------------------------
 ******  
 'inverter'

  ******  dc transfer curves tnom=  25.000 temp=  25.000 *****

   *** source        0:vin2 =  2.000e-02       ***

x

        volt    voltage      voltage      voltage    
                    in1          in2          out    
  0.0000e+00    0.000e+00    2.000e-02    1.000e-00  
  1.0000e-02    1.000e-02    2.000e-02    1.000e-00  
  2.0000e-02    2.000e-02    2.000e-02    1.000e-00  
  3.0000e-02    3.000e-02    2.000e-02    1.000e-00  
  4.0000e-02    4.000e-02    2.000e-02    1.000e-00  
  5.0000e-02    5.000e-02    2.000e-02    1.000e-00  
  6.0000e-02    6.000e-02    2.000e-02    1.000e-00  
  7.0000e-02    7.000e-02    2.000e-02    1.000e-00  
  8.0000e-02    8.000e-02    2.000e-02    1.000e-00  
  9.0000e-02    9.000e-02    2.000e-02    1.000e-00  
  1.0000e-01    1.000e-01    2.000e-02    1.000e-00  
  1.1000e-01    1.100e-01    2.000e-02    1.000e-00  
  1.2000e-01    1.200e-01    2.000e-02    1.000e-00  
  1.3000e-01    1.300e-01    2.000e-02    1.000e-00  
  1.4000e-01    1.400e-01    2.000e-02    1.000e-00  
  1.5000e-01    1.500e-01    2.000e-02    1.000e-00  
  1.6000e-01    1.600e-01    2.000e-02    1.000e-00  
  1.7000e-01    1.700e-01    2.000e-02    1.000e-00  
  1.8000e-01    1.800e-01    2.000e-02    1.000e-00  
  1.9000e-01    1.900e-01    2.000e-02    1.000e-00  
  2.0000e-01    2.000e-01    2.000e-02    1.000e-00  
  2.1000e-01    2.100e-01    2.000e-02    1.000e-00  
  2.2000e-01    2.200e-01    2.000e-02    1.000e-00  
  2.3000e-01    2.300e-01    2.000e-02    1.000e-00  
  2.4000e-01    2.400e-01    2.000e-02    1.000e-00  
  2.5000e-01    2.500e-01    2.000e-02    1.000e-00  
  2.6000e-01    2.600e-01    2.000e-02    1.000e-00  
  2.7000e-01    2.700e-01    2.000e-02    1.000e-00  
  2.8000e-01    2.800e-01    2.000e-02    1.000e-00  
  2.9000e-01    2.900e-01    2.000e-02    1.000e-00  
  3.0000e-01    3.000e-01    2.000e-02    1.000e-00  
  3.1000e-01    3.100e-01    2.000e-02    1.000e-00  
  3.2000e-01    3.200e-01    2.000e-02    1.000e-00  
  3.3000e-01    3.300e-01    2.000e-02    1.000e-00  
  3.4000e-01    3.400e-01    2.000e-02    1.000e-00  
  3.5000e-01    3.500e-01    2.000e-02    1.000e-00  
  3.6000e-01    3.600e-01    2.000e-02    1.000e-00  
  3.7000e-01    3.700e-01    2.000e-02    1.000e-00  
  3.8000e-01    3.800e-01    2.000e-02    1.000e-00  
  3.9000e-01    3.900e-01    2.000e-02    1.000e-00  
  4.0000e-01    4.000e-01    2.000e-02    1.000e-00  
  4.1000e-01    4.100e-01    2.000e-02    1.000e-00  
  4.2000e-01    4.200e-01    2.000e-02    1.000e-00  
  4.3000e-01    4.300e-01    2.000e-02    1.000e-00  
  4.4000e-01    4.400e-01    2.000e-02    1.000e-00  
  4.5000e-01    4.500e-01    2.000e-02    1.000e-00  
  4.6000e-01    4.600e-01    2.000e-02    1.000e-00  
  4.7000e-01    4.700e-01    2.000e-02    1.000e-00  
  4.8000e-01    4.800e-01    2.000e-02    1.000e-00  
  4.9000e-01    4.900e-01    2.000e-02    1.000e-00  
  5.0000e-01    5.000e-01    2.000e-02    1.000e-00  
  5.1000e-01    5.100e-01    2.000e-02    1.000e-00  
  5.2000e-01    5.200e-01    2.000e-02    1.000e-00  
  5.3000e-01    5.300e-01    2.000e-02    1.000e-00  
  5.4000e-01    5.400e-01    2.000e-02    1.000e-00  
  5.5000e-01    5.500e-01    2.000e-02    1.000e-00  
  5.6000e-01    5.600e-01    2.000e-02    1.000e-00  
  5.7000e-01    5.700e-01    2.000e-02    1.000e-00  
  5.8000e-01    5.800e-01    2.000e-02    1.000e-00  
  5.9000e-01    5.900e-01    2.000e-02    1.000e-00  
  6.0000e-01    6.000e-01    2.000e-02    1.000e-00  
  6.1000e-01    6.100e-01    2.000e-02    1.000e-00  
  6.2000e-01    6.200e-01    2.000e-02    1.000e-00  
  6.3000e-01    6.300e-01    2.000e-02    1.000e-00  
  6.4000e-01    6.400e-01    2.000e-02    1.000e-00  
  6.5000e-01    6.500e-01    2.000e-02    1.000e-00  
  6.6000e-01    6.600e-01    2.000e-02    1.000e-00  
  6.7000e-01    6.700e-01    2.000e-02    1.000e-00  
  6.8000e-01    6.800e-01    2.000e-02    1.000e-00  
  6.9000e-01    6.900e-01    2.000e-02    1.000e-00  
  7.0000e-01    7.000e-01    2.000e-02    1.000e-00  
  7.1000e-01    7.100e-01    2.000e-02    1.000e-00  
  7.2000e-01    7.200e-01    2.000e-02    1.000e-00  
  7.3000e-01    7.300e-01    2.000e-02    1.000e-00  
  7.4000e-01    7.400e-01    2.000e-02    1.000e-00  
  7.5000e-01    7.500e-01    2.000e-02    1.000e-00  
  7.6000e-01    7.600e-01    2.000e-02    1.000e-00  
  7.7000e-01    7.700e-01    2.000e-02    1.000e-00  
  7.8000e-01    7.800e-01    2.000e-02    1.000e-00  
  7.9000e-01    7.900e-01    2.000e-02    1.000e-00  
  8.0000e-01    8.000e-01    2.000e-02    1.000e-00  
  8.1000e-01    8.100e-01    2.000e-02    1.000e-00  
  8.2000e-01    8.200e-01    2.000e-02    1.000e-00  
  8.3000e-01    8.300e-01    2.000e-02    1.000e-00  
  8.4000e-01    8.400e-01    2.000e-02    1.000e-00  
  8.5000e-01    8.500e-01    2.000e-02    1.000e-00  
  8.6000e-01    8.600e-01    2.000e-02    1.000e-00  
  8.7000e-01    8.700e-01    2.000e-02    1.000e-00  
  8.8000e-01    8.800e-01    2.000e-02    1.000e-00  
  8.9000e-01    8.900e-01    2.000e-02    1.000e-00  
  9.0000e-01    9.000e-01    2.000e-02    1.000e-00  
  9.1000e-01    9.100e-01    2.000e-02    1.000e-00  
  9.2000e-01    9.200e-01    2.000e-02    1.000e-00  
  9.3000e-01    9.300e-01    2.000e-02    1.000e-00  
  9.4000e-01    9.400e-01    2.000e-02    1.000e-00  
  9.5000e-01    9.500e-01    2.000e-02    1.000e-00  
  9.6000e-01    9.600e-01    2.000e-02    1.000e-00  
  9.7000e-01    9.700e-01    2.000e-02    1.000e-00  
  9.8000e-01    9.800e-01    2.000e-02    1.000e-00  
  9.9000e-01    9.900e-01    2.000e-02    1.000e-00  
  1.0000e+00    1.000e+00    2.000e-02    1.000e-00  
y
-----------------------------------------------
 ******  
 'inverter'

  ******  dc transfer curves tnom=  25.000 temp=  25.000 *****

   *** source        0:vin2 =  3.000e-02       ***

x

        volt    voltage      voltage      voltage    
                    in1          in2          out    
  0.0000e+00    0.000e+00    3.000e-02    1.000e-00  
  1.0000e-02    1.000e-02    3.000e-02    1.000e-00  
  2.0000e-02    2.000e-02    3.000e-02    1.000e-00  
  3.0000e-02    3.000e-02    3.000e-02    1.000e-00  
  4.0000e-02    4.000e-02    3.000e-02    1.000e-00  
  5.0000e-02    5.000e-02    3.000e-02    1.000e-00  
  6.0000e-02    6.000e-02    3.000e-02    1.000e-00  
  7.0000e-02    7.000e-02    3.000e-02    1.000e-00  
  8.0000e-02    8.000e-02    3.000e-02    1.000e-00  
  9.0000e-02    9.000e-02    3.000e-02    1.000e-00  
  1.0000e-01    1.000e-01    3.000e-02    1.000e-00  
  1.1000e-01    1.100e-01    3.000e-02    1.000e-00  
  1.2000e-01    1.200e-01    3.000e-02    1.000e-00  
  1.3000e-01    1.300e-01    3.000e-02    1.000e-00  
  1.4000e-01    1.400e-01    3.000e-02    1.000e-00  
  1.5000e-01    1.500e-01    3.000e-02    1.000e-00  
  1.6000e-01    1.600e-01    3.000e-02    1.000e-00  
  1.7000e-01    1.700e-01    3.000e-02    1.000e-00  
  1.8000e-01    1.800e-01    3.000e-02    1.000e-00  
  1.9000e-01    1.900e-01    3.000e-02    1.000e-00  
  2.0000e-01    2.000e-01    3.000e-02    1.000e-00  
  2.1000e-01    2.100e-01    3.000e-02    1.000e-00  
  2.2000e-01    2.200e-01    3.000e-02    1.000e-00  
  2.3000e-01    2.300e-01    3.000e-02    1.000e-00  
  2.4000e-01    2.400e-01    3.000e-02    1.000e-00  
  2.5000e-01    2.500e-01    3.000e-02    1.000e-00  
  2.6000e-01    2.600e-01    3.000e-02    1.000e-00  
  2.7000e-01    2.700e-01    3.000e-02    1.000e-00  
  2.8000e-01    2.800e-01    3.000e-02    1.000e-00  
  2.9000e-01    2.900e-01    3.000e-02    1.000e-00  
  3.0000e-01    3.000e-01    3.000e-02    1.000e-00  
  3.1000e-01    3.100e-01    3.000e-02    1.000e-00  
  3.2000e-01    3.200e-01    3.000e-02    1.000e-00  
  3.3000e-01    3.300e-01    3.000e-02    1.000e-00  
  3.4000e-01    3.400e-01    3.000e-02    1.000e-00  
  3.5000e-01    3.500e-01    3.000e-02    1.000e-00  
  3.6000e-01    3.600e-01    3.000e-02    1.000e-00  
  3.7000e-01    3.700e-01    3.000e-02    1.000e-00  
  3.8000e-01    3.800e-01    3.000e-02    1.000e-00  
  3.9000e-01    3.900e-01    3.000e-02    1.000e-00  
  4.0000e-01    4.000e-01    3.000e-02    1.000e-00  
  4.1000e-01    4.100e-01    3.000e-02    1.000e-00  
  4.2000e-01    4.200e-01    3.000e-02    1.000e-00  
  4.3000e-01    4.300e-01    3.000e-02    1.000e-00  
  4.4000e-01    4.400e-01    3.000e-02    1.000e-00  
  4.5000e-01    4.500e-01    3.000e-02    1.000e-00  
  4.6000e-01    4.600e-01    3.000e-02    1.000e-00  
  4.7000e-01    4.700e-01    3.000e-02    1.000e-00  
  4.8000e-01    4.800e-01    3.000e-02    1.000e-00  
  4.9000e-01    4.900e-01    3.000e-02    1.000e-00  
  5.0000e-01    5.000e-01    3.000e-02    1.000e-00  
  5.1000e-01    5.100e-01    3.000e-02    1.000e-00  
  5.2000e-01    5.200e-01    3.000e-02    1.000e-00  
  5.3000e-01    5.300e-01    3.000e-02    1.000e-00  
  5.4000e-01    5.400e-01    3.000e-02    1.000e-00  
  5.5000e-01    5.500e-01    3.000e-02    1.000e-00  
  5.6000e-01    5.600e-01    3.000e-02    1.000e-00  
  5.7000e-01    5.700e-01    3.000e-02    1.000e-00  
  5.8000e-01    5.800e-01    3.000e-02    1.000e-00  
  5.9000e-01    5.900e-01    3.000e-02    1.000e-00  
  6.0000e-01    6.000e-01    3.000e-02    1.000e-00  
  6.1000e-01    6.100e-01    3.000e-02    1.000e-00  
  6.2000e-01    6.200e-01    3.000e-02    1.000e-00  
  6.3000e-01    6.300e-01    3.000e-02    1.000e-00  
  6.4000e-01    6.400e-01    3.000e-02    1.000e-00  
  6.5000e-01    6.500e-01    3.000e-02    1.000e-00  
  6.6000e-01    6.600e-01    3.000e-02    1.000e-00  
  6.7000e-01    6.700e-01    3.000e-02    1.000e-00  
  6.8000e-01    6.800e-01    3.000e-02    1.000e-00  
  6.9000e-01    6.900e-01    3.000e-02    1.000e-00  
  7.0000e-01    7.000e-01    3.000e-02    1.000e-00  
  7.1000e-01    7.100e-01    3.000e-02    1.000e-00  
  7.2000e-01    7.200e-01    3.000e-02    1.000e-00  
  7.3000e-01    7.300e-01    3.000e-02    1.000e-00  
  7.4000e-01    7.400e-01    3.000e-02    1.000e-00  
  7.5000e-01    7.500e-01    3.000e-02    1.000e-00  
  7.6000e-01    7.600e-01    3.000e-02    1.000e-00  
  7.7000e-01    7.700e-01    3.000e-02    1.000e-00  
  7.8000e-01    7.800e-01    3.000e-02    1.000e-00  
  7.9000e-01    7.900e-01    3.000e-02    1.000e-00  
  8.0000e-01    8.000e-01    3.000e-02    1.000e-00  
  8.1000e-01    8.100e-01    3.000e-02    1.000e-00  
  8.2000e-01    8.200e-01    3.000e-02    1.000e-00  
  8.3000e-01    8.300e-01    3.000e-02    1.000e-00  
  8.4000e-01    8.400e-01    3.000e-02    1.000e-00  
  8.5000e-01    8.500e-01    3.000e-02    1.000e-00  
  8.6000e-01    8.600e-01    3.000e-02    1.000e-00  
  8.7000e-01    8.700e-01    3.000e-02    1.000e-00  
  8.8000e-01    8.800e-01    3.000e-02    1.000e-00  
  8.9000e-01    8.900e-01    3.000e-02    1.000e-00  
  9.0000e-01    9.000e-01    3.000e-02    1.000e-00  
  9.1000e-01    9.100e-01    3.000e-02    1.000e-00  
  9.2000e-01    9.200e-01    3.000e-02    1.000e-00  
  9.3000e-01    9.300e-01    3.000e-02    1.000e-00  
  9.4000e-01    9.400e-01    3.000e-02    1.000e-00  
  9.5000e-01    9.500e-01    3.000e-02    1.000e-00  
  9.6000e-01    9.600e-01    3.000e-02    1.000e-00  
  9.7000e-01    9.700e-01    3.000e-02    1.000e-00  
  9.8000e-01    9.800e-01    3.000e-02    1.000e-00  
  9.9000e-01    9.900e-01    3.000e-02    1.000e-00  
  1.0000e+00    1.000e+00    3.000e-02    1.000e-00  
y
-----------------------------------------------
 ******  
 'inverter'

  ******  dc transfer curves tnom=  25.000 temp=  25.000 *****

   *** source        0:vin2 =  4.000e-02       ***

x

        volt    voltage      voltage      voltage    
                    in1          in2          out    
  0.0000e+00    0.000e+00    4.000e-02    1.000e-00  
  1.0000e-02    1.000e-02    4.000e-02    1.000e-00  
  2.0000e-02    2.000e-02    4.000e-02    1.000e-00  
  3.0000e-02    3.000e-02    4.000e-02    1.000e-00  
  4.0000e-02    4.000e-02    4.000e-02    1.000e-00  
  5.0000e-02    5.000e-02    4.000e-02    1.000e-00  
  6.0000e-02    6.000e-02    4.000e-02    1.000e-00  
  7.0000e-02    7.000e-02    4.000e-02    1.000e-00  
  8.0000e-02    8.000e-02    4.000e-02    1.000e-00  
  9.0000e-02    9.000e-02    4.000e-02    1.000e-00  
  1.0000e-01    1.000e-01    4.000e-02    1.000e-00  
  1.1000e-01    1.100e-01    4.000e-02    1.000e-00  
  1.2000e-01    1.200e-01    4.000e-02    1.000e-00  
  1.3000e-01    1.300e-01    4.000e-02    1.000e-00  
  1.4000e-01    1.400e-01    4.000e-02    1.000e-00  
  1.5000e-01    1.500e-01    4.000e-02    1.000e-00  
  1.6000e-01    1.600e-01    4.000e-02    1.000e-00  
  1.7000e-01    1.700e-01    4.000e-02    1.000e-00  
  1.8000e-01    1.800e-01    4.000e-02    1.000e-00  
  1.9000e-01    1.900e-01    4.000e-02    1.000e-00  
  2.0000e-01    2.000e-01    4.000e-02    1.000e-00  
  2.1000e-01    2.100e-01    4.000e-02    1.000e-00  
  2.2000e-01    2.200e-01    4.000e-02    1.000e-00  
  2.3000e-01    2.300e-01    4.000e-02    1.000e-00  
  2.4000e-01    2.400e-01    4.000e-02    1.000e-00  
  2.5000e-01    2.500e-01    4.000e-02    1.000e-00  
  2.6000e-01    2.600e-01    4.000e-02    1.000e-00  
  2.7000e-01    2.700e-01    4.000e-02    1.000e-00  
  2.8000e-01    2.800e-01    4.000e-02    1.000e-00  
  2.9000e-01    2.900e-01    4.000e-02    1.000e-00  
  3.0000e-01    3.000e-01    4.000e-02    1.000e-00  
  3.1000e-01    3.100e-01    4.000e-02    1.000e-00  
  3.2000e-01    3.200e-01    4.000e-02    1.000e-00  
  3.3000e-01    3.300e-01    4.000e-02    1.000e-00  
  3.4000e-01    3.400e-01    4.000e-02    1.000e-00  
  3.5000e-01    3.500e-01    4.000e-02    1.000e-00  
  3.6000e-01    3.600e-01    4.000e-02    1.000e-00  
  3.7000e-01    3.700e-01    4.000e-02    1.000e-00  
  3.8000e-01    3.800e-01    4.000e-02    1.000e-00  
  3.9000e-01    3.900e-01    4.000e-02    1.000e-00  
  4.0000e-01    4.000e-01    4.000e-02    1.000e-00  
  4.1000e-01    4.100e-01    4.000e-02    1.000e-00  
  4.2000e-01    4.200e-01    4.000e-02    1.000e-00  
  4.3000e-01    4.300e-01    4.000e-02    1.000e-00  
  4.4000e-01    4.400e-01    4.000e-02    1.000e-00  
  4.5000e-01    4.500e-01    4.000e-02    1.000e-00  
  4.6000e-01    4.600e-01    4.000e-02    1.000e-00  
  4.7000e-01    4.700e-01    4.000e-02    1.000e-00  
  4.8000e-01    4.800e-01    4.000e-02    1.000e-00  
  4.9000e-01    4.900e-01    4.000e-02    1.000e-00  
  5.0000e-01    5.000e-01    4.000e-02    1.000e-00  
  5.1000e-01    5.100e-01    4.000e-02    1.000e-00  
  5.2000e-01    5.200e-01    4.000e-02    1.000e-00  
  5.3000e-01    5.300e-01    4.000e-02    1.000e-00  
  5.4000e-01    5.400e-01    4.000e-02    1.000e-00  
  5.5000e-01    5.500e-01    4.000e-02    1.000e-00  
  5.6000e-01    5.600e-01    4.000e-02    1.000e-00  
  5.7000e-01    5.700e-01    4.000e-02    1.000e-00  
  5.8000e-01    5.800e-01    4.000e-02    1.000e-00  
  5.9000e-01    5.900e-01    4.000e-02    1.000e-00  
  6.0000e-01    6.000e-01    4.000e-02    1.000e-00  
  6.1000e-01    6.100e-01    4.000e-02    1.000e-00  
  6.2000e-01    6.200e-01    4.000e-02    1.000e-00  
  6.3000e-01    6.300e-01    4.000e-02    1.000e-00  
  6.4000e-01    6.400e-01    4.000e-02    1.000e-00  
  6.5000e-01    6.500e-01    4.000e-02    1.000e-00  
  6.6000e-01    6.600e-01    4.000e-02    1.000e-00  
  6.7000e-01    6.700e-01    4.000e-02    1.000e-00  
  6.8000e-01    6.800e-01    4.000e-02    1.000e-00  
  6.9000e-01    6.900e-01    4.000e-02    1.000e-00  
  7.0000e-01    7.000e-01    4.000e-02    1.000e-00  
  7.1000e-01    7.100e-01    4.000e-02    1.000e-00  
  7.2000e-01    7.200e-01    4.000e-02    1.000e-00  
  7.3000e-01    7.300e-01    4.000e-02    1.000e-00  
  7.4000e-01    7.400e-01    4.000e-02    1.000e-00  
  7.5000e-01    7.500e-01    4.000e-02    1.000e-00  
  7.6000e-01    7.600e-01    4.000e-02    1.000e-00  
  7.7000e-01    7.700e-01    4.000e-02    1.000e-00  
  7.8000e-01    7.800e-01    4.000e-02    1.000e-00  
  7.9000e-01    7.900e-01    4.000e-02    1.000e-00  
  8.0000e-01    8.000e-01    4.000e-02    1.000e-00  
  8.1000e-01    8.100e-01    4.000e-02    1.000e-00  
  8.2000e-01    8.200e-01    4.000e-02    1.000e-00  
  8.3000e-01    8.300e-01    4.000e-02    1.000e-00  
  8.4000e-01    8.400e-01    4.000e-02    1.000e-00  
  8.5000e-01    8.500e-01    4.000e-02    1.000e-00  
  8.6000e-01    8.600e-01    4.000e-02    1.000e-00  
  8.7000e-01    8.700e-01    4.000e-02    1.000e-00  
  8.8000e-01    8.800e-01    4.000e-02    1.000e-00  
  8.9000e-01    8.900e-01    4.000e-02    1.000e-00  
  9.0000e-01    9.000e-01    4.000e-02    1.000e-00  
  9.1000e-01    9.100e-01    4.000e-02    1.000e-00  
  9.2000e-01    9.200e-01    4.000e-02    1.000e-00  
  9.3000e-01    9.300e-01    4.000e-02    1.000e-00  
  9.4000e-01    9.400e-01    4.000e-02    1.000e-00  
  9.5000e-01    9.500e-01    4.000e-02    1.000e-00  
  9.6000e-01    9.600e-01    4.000e-02    1.000e-00  
  9.7000e-01    9.700e-01    4.000e-02    1.000e-00  
  9.8000e-01    9.800e-01    4.000e-02    1.000e-00  
  9.9000e-01    9.900e-01    4.000e-02    1.000e-00  
  1.0000e+00    1.000e+00    4.000e-02    1.000e-00  
y
-----------------------------------------------
 ******  
 'inverter'

  ******  dc transfer curves tnom=  25.000 temp=  25.000 *****

   *** source        0:vin2 =  5.000e-02       ***

x

        volt    voltage      voltage      voltage    
                    in1          in2          out    
  0.0000e+00    0.000e+00    5.000e-02    1.000e-00  
  1.0000e-02    1.000e-02    5.000e-02    1.000e-00  
  2.0000e-02    2.000e-02    5.000e-02    1.000e-00  
  3.0000e-02    3.000e-02    5.000e-02    1.000e-00  
  4.0000e-02    4.000e-02    5.000e-02    1.000e-00  
  5.0000e-02    5.000e-02    5.000e-02    1.000e-00  
  6.0000e-02    6.000e-02    5.000e-02    1.000e-00  
  7.0000e-02    7.000e-02    5.000e-02    1.000e-00  
  8.0000e-02    8.000e-02    5.000e-02    1.000e-00  
  9.0000e-02    9.000e-02    5.000e-02    1.000e-00  
  1.0000e-01    1.000e-01    5.000e-02    1.000e-00  
  1.1000e-01    1.100e-01    5.000e-02    1.000e-00  
  1.2000e-01    1.200e-01    5.000e-02    1.000e-00  
  1.3000e-01    1.300e-01    5.000e-02    1.000e-00  
  1.4000e-01    1.400e-01    5.000e-02    1.000e-00  
  1.5000e-01    1.500e-01    5.000e-02    1.000e-00  
  1.6000e-01    1.600e-01    5.000e-02    1.000e-00  
  1.7000e-01    1.700e-01    5.000e-02    1.000e-00  
  1.8000e-01    1.800e-01    5.000e-02    1.000e-00  
  1.9000e-01    1.900e-01    5.000e-02    1.000e-00  
  2.0000e-01    2.000e-01    5.000e-02    1.000e-00  
  2.1000e-01    2.100e-01    5.000e-02    1.000e-00  
  2.2000e-01    2.200e-01    5.000e-02    1.000e-00  
  2.3000e-01    2.300e-01    5.000e-02    1.000e-00  
  2.4000e-01    2.400e-01    5.000e-02    1.000e-00  
  2.5000e-01    2.500e-01    5.000e-02    1.000e-00  
  2.6000e-01    2.600e-01    5.000e-02    1.000e-00  
  2.7000e-01    2.700e-01    5.000e-02    1.000e-00  
  2.8000e-01    2.800e-01    5.000e-02    1.000e-00  
  2.9000e-01    2.900e-01    5.000e-02    1.000e-00  
  3.0000e-01    3.000e-01    5.000e-02    1.000e-00  
  3.1000e-01    3.100e-01    5.000e-02    1.000e-00  
  3.2000e-01    3.200e-01    5.000e-02    1.000e-00  
  3.3000e-01    3.300e-01    5.000e-02    1.000e-00  
  3.4000e-01    3.400e-01    5.000e-02    1.000e-00  
  3.5000e-01    3.500e-01    5.000e-02    1.000e-00  
  3.6000e-01    3.600e-01    5.000e-02    1.000e-00  
  3.7000e-01    3.700e-01    5.000e-02    1.000e-00  
  3.8000e-01    3.800e-01    5.000e-02    1.000e-00  
  3.9000e-01    3.900e-01    5.000e-02    1.000e-00  
  4.0000e-01    4.000e-01    5.000e-02    1.000e-00  
  4.1000e-01    4.100e-01    5.000e-02    1.000e-00  
  4.2000e-01    4.200e-01    5.000e-02    1.000e-00  
  4.3000e-01    4.300e-01    5.000e-02    1.000e-00  
  4.4000e-01    4.400e-01    5.000e-02    1.000e-00  
  4.5000e-01    4.500e-01    5.000e-02    1.000e-00  
  4.6000e-01    4.600e-01    5.000e-02    1.000e-00  
  4.7000e-01    4.700e-01    5.000e-02    1.000e-00  
  4.8000e-01    4.800e-01    5.000e-02    1.000e-00  
  4.9000e-01    4.900e-01    5.000e-02    1.000e-00  
  5.0000e-01    5.000e-01    5.000e-02    1.000e-00  
  5.1000e-01    5.100e-01    5.000e-02    1.000e-00  
  5.2000e-01    5.200e-01    5.000e-02    1.000e-00  
  5.3000e-01    5.300e-01    5.000e-02    1.000e-00  
  5.4000e-01    5.400e-01    5.000e-02    1.000e-00  
  5.5000e-01    5.500e-01    5.000e-02    1.000e-00  
  5.6000e-01    5.600e-01    5.000e-02    1.000e-00  
  5.7000e-01    5.700e-01    5.000e-02    1.000e-00  
  5.8000e-01    5.800e-01    5.000e-02    1.000e-00  
  5.9000e-01    5.900e-01    5.000e-02    1.000e-00  
  6.0000e-01    6.000e-01    5.000e-02    1.000e-00  
  6.1000e-01    6.100e-01    5.000e-02    1.000e-00  
  6.2000e-01    6.200e-01    5.000e-02    1.000e-00  
  6.3000e-01    6.300e-01    5.000e-02    1.000e-00  
  6.4000e-01    6.400e-01    5.000e-02    1.000e-00  
  6.5000e-01    6.500e-01    5.000e-02    1.000e-00  
  6.6000e-01    6.600e-01    5.000e-02    1.000e-00  
  6.7000e-01    6.700e-01    5.000e-02    1.000e-00  
  6.8000e-01    6.800e-01    5.000e-02    1.000e-00  
  6.9000e-01    6.900e-01    5.000e-02    1.000e-00  
  7.0000e-01    7.000e-01    5.000e-02    1.000e-00  
  7.1000e-01    7.100e-01    5.000e-02    1.000e-00  
  7.2000e-01    7.200e-01    5.000e-02    1.000e-00  
  7.3000e-01    7.300e-01    5.000e-02    1.000e-00  
  7.4000e-01    7.400e-01    5.000e-02    1.000e-00  
  7.5000e-01    7.500e-01    5.000e-02    1.000e-00  
  7.6000e-01    7.600e-01    5.000e-02    1.000e-00  
  7.7000e-01    7.700e-01    5.000e-02    1.000e-00  
  7.8000e-01    7.800e-01    5.000e-02    1.000e-00  
  7.9000e-01    7.900e-01    5.000e-02    1.000e-00  
  8.0000e-01    8.000e-01    5.000e-02    1.000e-00  
  8.1000e-01    8.100e-01    5.000e-02    1.000e-00  
  8.2000e-01    8.200e-01    5.000e-02    1.000e-00  
  8.3000e-01    8.300e-01    5.000e-02    1.000e-00  
  8.4000e-01    8.400e-01    5.000e-02    1.000e-00  
  8.5000e-01    8.500e-01    5.000e-02    1.000e-00  
  8.6000e-01    8.600e-01    5.000e-02    1.000e-00  
  8.7000e-01    8.700e-01    5.000e-02    1.000e-00  
  8.8000e-01    8.800e-01    5.000e-02    1.000e-00  
  8.9000e-01    8.900e-01    5.000e-02    1.000e-00  
  9.0000e-01    9.000e-01    5.000e-02    1.000e-00  
  9.1000e-01    9.100e-01    5.000e-02    1.000e-00  
  9.2000e-01    9.200e-01    5.000e-02    1.000e-00  
  9.3000e-01    9.300e-01    5.000e-02    1.000e-00  
  9.4000e-01    9.400e-01    5.000e-02    1.000e-00  
  9.5000e-01    9.500e-01    5.000e-02    1.000e-00  
  9.6000e-01    9.600e-01    5.000e-02    1.000e-00  
  9.7000e-01    9.700e-01    5.000e-02    1.000e-00  
  9.8000e-01    9.800e-01    5.000e-02    1.000e-00  
  9.9000e-01    9.900e-01    5.000e-02    1.000e-00  
  1.0000e+00    1.000e+00    5.000e-02    1.000e-00  
y
-----------------------------------------------
 ******  
 'inverter'

  ******  dc transfer curves tnom=  25.000 temp=  25.000 *****

   *** source        0:vin2 =  6.000e-02       ***

x

        volt    voltage      voltage      voltage    
                    in1          in2          out    
  0.0000e+00    0.000e+00    6.000e-02    1.000e-00  
  1.0000e-02    1.000e-02    6.000e-02    1.000e-00  
  2.0000e-02    2.000e-02    6.000e-02    1.000e-00  
  3.0000e-02    3.000e-02    6.000e-02    1.000e-00  
  4.0000e-02    4.000e-02    6.000e-02    1.000e-00  
  5.0000e-02    5.000e-02    6.000e-02    1.000e-00  
  6.0000e-02    6.000e-02    6.000e-02    1.000e-00  
  7.0000e-02    7.000e-02    6.000e-02    1.000e-00  
  8.0000e-02    8.000e-02    6.000e-02    1.000e-00  
  9.0000e-02    9.000e-02    6.000e-02    1.000e-00  
  1.0000e-01    1.000e-01    6.000e-02    1.000e-00  
  1.1000e-01    1.100e-01    6.000e-02    1.000e-00  
  1.2000e-01    1.200e-01    6.000e-02    1.000e-00  
  1.3000e-01    1.300e-01    6.000e-02    1.000e-00  
  1.4000e-01    1.400e-01    6.000e-02    1.000e-00  
  1.5000e-01    1.500e-01    6.000e-02    1.000e-00  
  1.6000e-01    1.600e-01    6.000e-02    1.000e-00  
  1.7000e-01    1.700e-01    6.000e-02    1.000e-00  
  1.8000e-01    1.800e-01    6.000e-02    1.000e-00  
  1.9000e-01    1.900e-01    6.000e-02    1.000e-00  
  2.0000e-01    2.000e-01    6.000e-02    1.000e-00  
  2.1000e-01    2.100e-01    6.000e-02    1.000e-00  
  2.2000e-01    2.200e-01    6.000e-02    1.000e-00  
  2.3000e-01    2.300e-01    6.000e-02    1.000e-00  
  2.4000e-01    2.400e-01    6.000e-02    1.000e-00  
  2.5000e-01    2.500e-01    6.000e-02    1.000e-00  
  2.6000e-01    2.600e-01    6.000e-02    1.000e-00  
  2.7000e-01    2.700e-01    6.000e-02    1.000e-00  
  2.8000e-01    2.800e-01    6.000e-02    1.000e-00  
  2.9000e-01    2.900e-01    6.000e-02    1.000e-00  
  3.0000e-01    3.000e-01    6.000e-02    1.000e-00  
  3.1000e-01    3.100e-01    6.000e-02    1.000e-00  
  3.2000e-01    3.200e-01    6.000e-02    1.000e-00  
  3.3000e-01    3.300e-01    6.000e-02    1.000e-00  
  3.4000e-01    3.400e-01    6.000e-02    1.000e-00  
  3.5000e-01    3.500e-01    6.000e-02    1.000e-00  
  3.6000e-01    3.600e-01    6.000e-02    1.000e-00  
  3.7000e-01    3.700e-01    6.000e-02    1.000e-00  
  3.8000e-01    3.800e-01    6.000e-02    1.000e-00  
  3.9000e-01    3.900e-01    6.000e-02    1.000e-00  
  4.0000e-01    4.000e-01    6.000e-02    1.000e-00  
  4.1000e-01    4.100e-01    6.000e-02    1.000e-00  
  4.2000e-01    4.200e-01    6.000e-02    1.000e-00  
  4.3000e-01    4.300e-01    6.000e-02    1.000e-00  
  4.4000e-01    4.400e-01    6.000e-02    1.000e-00  
  4.5000e-01    4.500e-01    6.000e-02    1.000e-00  
  4.6000e-01    4.600e-01    6.000e-02    1.000e-00  
  4.7000e-01    4.700e-01    6.000e-02    1.000e-00  
  4.8000e-01    4.800e-01    6.000e-02    1.000e-00  
  4.9000e-01    4.900e-01    6.000e-02    1.000e-00  
  5.0000e-01    5.000e-01    6.000e-02    1.000e-00  
  5.1000e-01    5.100e-01    6.000e-02    1.000e-00  
  5.2000e-01    5.200e-01    6.000e-02    1.000e-00  
  5.3000e-01    5.300e-01    6.000e-02    1.000e-00  
  5.4000e-01    5.400e-01    6.000e-02    1.000e-00  
  5.5000e-01    5.500e-01    6.000e-02    1.000e-00  
  5.6000e-01    5.600e-01    6.000e-02    1.000e-00  
  5.7000e-01    5.700e-01    6.000e-02    1.000e-00  
  5.8000e-01    5.800e-01    6.000e-02    1.000e-00  
  5.9000e-01    5.900e-01    6.000e-02    1.000e-00  
  6.0000e-01    6.000e-01    6.000e-02    1.000e-00  
  6.1000e-01    6.100e-01    6.000e-02    1.000e-00  
  6.2000e-01    6.200e-01    6.000e-02    1.000e-00  
  6.3000e-01    6.300e-01    6.000e-02    1.000e-00  
  6.4000e-01    6.400e-01    6.000e-02    1.000e-00  
  6.5000e-01    6.500e-01    6.000e-02    1.000e-00  
  6.6000e-01    6.600e-01    6.000e-02    1.000e-00  
  6.7000e-01    6.700e-01    6.000e-02    1.000e-00  
  6.8000e-01    6.800e-01    6.000e-02    1.000e-00  
  6.9000e-01    6.900e-01    6.000e-02    1.000e-00  
  7.0000e-01    7.000e-01    6.000e-02    1.000e-00  
  7.1000e-01    7.100e-01    6.000e-02    1.000e-00  
  7.2000e-01    7.200e-01    6.000e-02    1.000e-00  
  7.3000e-01    7.300e-01    6.000e-02    1.000e-00  
  7.4000e-01    7.400e-01    6.000e-02    1.000e-00  
  7.5000e-01    7.500e-01    6.000e-02    1.000e-00  
  7.6000e-01    7.600e-01    6.000e-02    1.000e-00  
  7.7000e-01    7.700e-01    6.000e-02    1.000e-00  
  7.8000e-01    7.800e-01    6.000e-02    1.000e-00  
  7.9000e-01    7.900e-01    6.000e-02    1.000e-00  
  8.0000e-01    8.000e-01    6.000e-02    1.000e-00  
  8.1000e-01    8.100e-01    6.000e-02    1.000e-00  
  8.2000e-01    8.200e-01    6.000e-02    1.000e-00  
  8.3000e-01    8.300e-01    6.000e-02    1.000e-00  
  8.4000e-01    8.400e-01    6.000e-02    1.000e-00  
  8.5000e-01    8.500e-01    6.000e-02    1.000e-00  
  8.6000e-01    8.600e-01    6.000e-02    1.000e-00  
  8.7000e-01    8.700e-01    6.000e-02    1.000e-00  
  8.8000e-01    8.800e-01    6.000e-02    1.000e-00  
  8.9000e-01    8.900e-01    6.000e-02    1.000e-00  
  9.0000e-01    9.000e-01    6.000e-02    1.000e-00  
  9.1000e-01    9.100e-01    6.000e-02    1.000e-00  
  9.2000e-01    9.200e-01    6.000e-02    1.000e-00  
  9.3000e-01    9.300e-01    6.000e-02    1.000e-00  
  9.4000e-01    9.400e-01    6.000e-02    1.000e-00  
  9.5000e-01    9.500e-01    6.000e-02    1.000e-00  
  9.6000e-01    9.600e-01    6.000e-02    1.000e-00  
  9.7000e-01    9.700e-01    6.000e-02    1.000e-00  
  9.8000e-01    9.800e-01    6.000e-02    1.000e-00  
  9.9000e-01    9.900e-01    6.000e-02    1.000e-00  
  1.0000e+00    1.000e+00    6.000e-02    1.000e-00  
y
-----------------------------------------------
 ******  
 'inverter'

  ******  dc transfer curves tnom=  25.000 temp=  25.000 *****

   *** source        0:vin2 =  7.000e-02       ***

x

        volt    voltage      voltage      voltage    
                    in1          in2          out    
  0.0000e+00    0.000e+00    7.000e-02    1.000e-00  
  1.0000e-02    1.000e-02    7.000e-02    1.000e-00  
  2.0000e-02    2.000e-02    7.000e-02    1.000e-00  
  3.0000e-02    3.000e-02    7.000e-02    1.000e-00  
  4.0000e-02    4.000e-02    7.000e-02    1.000e-00  
  5.0000e-02    5.000e-02    7.000e-02    1.000e-00  
  6.0000e-02    6.000e-02    7.000e-02    1.000e-00  
  7.0000e-02    7.000e-02    7.000e-02    1.000e-00  
  8.0000e-02    8.000e-02    7.000e-02    1.000e-00  
  9.0000e-02    9.000e-02    7.000e-02    1.000e-00  
  1.0000e-01    1.000e-01    7.000e-02    1.000e-00  
  1.1000e-01    1.100e-01    7.000e-02    1.000e-00  
  1.2000e-01    1.200e-01    7.000e-02    1.000e-00  
  1.3000e-01    1.300e-01    7.000e-02    1.000e-00  
  1.4000e-01    1.400e-01    7.000e-02    1.000e-00  
  1.5000e-01    1.500e-01    7.000e-02    1.000e-00  
  1.6000e-01    1.600e-01    7.000e-02    1.000e-00  
  1.7000e-01    1.700e-01    7.000e-02    1.000e-00  
  1.8000e-01    1.800e-01    7.000e-02    1.000e-00  
  1.9000e-01    1.900e-01    7.000e-02    1.000e-00  
  2.0000e-01    2.000e-01    7.000e-02    1.000e-00  
  2.1000e-01    2.100e-01    7.000e-02    1.000e-00  
  2.2000e-01    2.200e-01    7.000e-02    1.000e-00  
  2.3000e-01    2.300e-01    7.000e-02    1.000e-00  
  2.4000e-01    2.400e-01    7.000e-02    1.000e-00  
  2.5000e-01    2.500e-01    7.000e-02    1.000e-00  
  2.6000e-01    2.600e-01    7.000e-02    1.000e-00  
  2.7000e-01    2.700e-01    7.000e-02    1.000e-00  
  2.8000e-01    2.800e-01    7.000e-02    1.000e-00  
  2.9000e-01    2.900e-01    7.000e-02    1.000e-00  
  3.0000e-01    3.000e-01    7.000e-02    1.000e-00  
  3.1000e-01    3.100e-01    7.000e-02    1.000e-00  
  3.2000e-01    3.200e-01    7.000e-02    1.000e-00  
  3.3000e-01    3.300e-01    7.000e-02    1.000e-00  
  3.4000e-01    3.400e-01    7.000e-02    1.000e-00  
  3.5000e-01    3.500e-01    7.000e-02    1.000e-00  
  3.6000e-01    3.600e-01    7.000e-02    1.000e-00  
  3.7000e-01    3.700e-01    7.000e-02    1.000e-00  
  3.8000e-01    3.800e-01    7.000e-02    1.000e-00  
  3.9000e-01    3.900e-01    7.000e-02    1.000e-00  
  4.0000e-01    4.000e-01    7.000e-02    1.000e-00  
  4.1000e-01    4.100e-01    7.000e-02    1.000e-00  
  4.2000e-01    4.200e-01    7.000e-02    1.000e-00  
  4.3000e-01    4.300e-01    7.000e-02    1.000e-00  
  4.4000e-01    4.400e-01    7.000e-02    1.000e-00  
  4.5000e-01    4.500e-01    7.000e-02    1.000e-00  
  4.6000e-01    4.600e-01    7.000e-02    1.000e-00  
  4.7000e-01    4.700e-01    7.000e-02    1.000e-00  
  4.8000e-01    4.800e-01    7.000e-02    1.000e-00  
  4.9000e-01    4.900e-01    7.000e-02    1.000e-00  
  5.0000e-01    5.000e-01    7.000e-02    1.000e-00  
  5.1000e-01    5.100e-01    7.000e-02    1.000e-00  
  5.2000e-01    5.200e-01    7.000e-02    1.000e-00  
  5.3000e-01    5.300e-01    7.000e-02    1.000e-00  
  5.4000e-01    5.400e-01    7.000e-02    1.000e-00  
  5.5000e-01    5.500e-01    7.000e-02    1.000e-00  
  5.6000e-01    5.600e-01    7.000e-02    1.000e-00  
  5.7000e-01    5.700e-01    7.000e-02    1.000e-00  
  5.8000e-01    5.800e-01    7.000e-02    1.000e-00  
  5.9000e-01    5.900e-01    7.000e-02    1.000e-00  
  6.0000e-01    6.000e-01    7.000e-02    1.000e-00  
  6.1000e-01    6.100e-01    7.000e-02    1.000e-00  
  6.2000e-01    6.200e-01    7.000e-02    1.000e-00  
  6.3000e-01    6.300e-01    7.000e-02    1.000e-00  
  6.4000e-01    6.400e-01    7.000e-02    1.000e-00  
  6.5000e-01    6.500e-01    7.000e-02    1.000e-00  
  6.6000e-01    6.600e-01    7.000e-02    1.000e-00  
  6.7000e-01    6.700e-01    7.000e-02    1.000e-00  
  6.8000e-01    6.800e-01    7.000e-02    1.000e-00  
  6.9000e-01    6.900e-01    7.000e-02    1.000e-00  
  7.0000e-01    7.000e-01    7.000e-02    1.000e-00  
  7.1000e-01    7.100e-01    7.000e-02    1.000e-00  
  7.2000e-01    7.200e-01    7.000e-02    1.000e-00  
  7.3000e-01    7.300e-01    7.000e-02    1.000e-00  
  7.4000e-01    7.400e-01    7.000e-02    1.000e-00  
  7.5000e-01    7.500e-01    7.000e-02    1.000e-00  
  7.6000e-01    7.600e-01    7.000e-02    1.000e-00  
  7.7000e-01    7.700e-01    7.000e-02    1.000e-00  
  7.8000e-01    7.800e-01    7.000e-02    1.000e-00  
  7.9000e-01    7.900e-01    7.000e-02    1.000e-00  
  8.0000e-01    8.000e-01    7.000e-02    1.000e-00  
  8.1000e-01    8.100e-01    7.000e-02    1.000e-00  
  8.2000e-01    8.200e-01    7.000e-02    1.000e-00  
  8.3000e-01    8.300e-01    7.000e-02    1.000e-00  
  8.4000e-01    8.400e-01    7.000e-02    1.000e-00  
  8.5000e-01    8.500e-01    7.000e-02    1.000e-00  
  8.6000e-01    8.600e-01    7.000e-02    1.000e-00  
  8.7000e-01    8.700e-01    7.000e-02    1.000e-00  
  8.8000e-01    8.800e-01    7.000e-02    1.000e-00  
  8.9000e-01    8.900e-01    7.000e-02    1.000e-00  
  9.0000e-01    9.000e-01    7.000e-02    1.000e-00  
  9.1000e-01    9.100e-01    7.000e-02    1.000e-00  
  9.2000e-01    9.200e-01    7.000e-02    1.000e-00  
  9.3000e-01    9.300e-01    7.000e-02    1.000e-00  
  9.4000e-01    9.400e-01    7.000e-02    1.000e-00  
  9.5000e-01    9.500e-01    7.000e-02    1.000e-00  
  9.6000e-01    9.600e-01    7.000e-02    1.000e-00  
  9.7000e-01    9.700e-01    7.000e-02    1.000e-00  
  9.8000e-01    9.800e-01    7.000e-02    1.000e-00  
  9.9000e-01    9.900e-01    7.000e-02    1.000e-00  
  1.0000e+00    1.000e+00    7.000e-02    1.000e-00  
y
-----------------------------------------------
 ******  
 'inverter'

  ******  dc transfer curves tnom=  25.000 temp=  25.000 *****

   *** source        0:vin2 =  8.000e-02       ***

x

        volt    voltage      voltage      voltage    
                    in1          in2          out    
  0.0000e+00    0.000e+00    8.000e-02    1.000e-00  
  1.0000e-02    1.000e-02    8.000e-02    1.000e-00  
  2.0000e-02    2.000e-02    8.000e-02    1.000e-00  
  3.0000e-02    3.000e-02    8.000e-02    1.000e-00  
  4.0000e-02    4.000e-02    8.000e-02    1.000e-00  
  5.0000e-02    5.000e-02    8.000e-02    1.000e-00  
  6.0000e-02    6.000e-02    8.000e-02    1.000e-00  
  7.0000e-02    7.000e-02    8.000e-02    1.000e-00  
  8.0000e-02    8.000e-02    8.000e-02    1.000e-00  
  9.0000e-02    9.000e-02    8.000e-02    1.000e-00  
  1.0000e-01    1.000e-01    8.000e-02    1.000e-00  
  1.1000e-01    1.100e-01    8.000e-02    1.000e-00  
  1.2000e-01    1.200e-01    8.000e-02    1.000e-00  
  1.3000e-01    1.300e-01    8.000e-02    1.000e-00  
  1.4000e-01    1.400e-01    8.000e-02    1.000e-00  
  1.5000e-01    1.500e-01    8.000e-02    1.000e-00  
  1.6000e-01    1.600e-01    8.000e-02    1.000e-00  
  1.7000e-01    1.700e-01    8.000e-02    1.000e-00  
  1.8000e-01    1.800e-01    8.000e-02    1.000e-00  
  1.9000e-01    1.900e-01    8.000e-02    1.000e-00  
  2.0000e-01    2.000e-01    8.000e-02    1.000e-00  
  2.1000e-01    2.100e-01    8.000e-02    1.000e-00  
  2.2000e-01    2.200e-01    8.000e-02    1.000e-00  
  2.3000e-01    2.300e-01    8.000e-02    1.000e-00  
  2.4000e-01    2.400e-01    8.000e-02    1.000e-00  
  2.5000e-01    2.500e-01    8.000e-02    1.000e-00  
  2.6000e-01    2.600e-01    8.000e-02    1.000e-00  
  2.7000e-01    2.700e-01    8.000e-02    1.000e-00  
  2.8000e-01    2.800e-01    8.000e-02    1.000e-00  
  2.9000e-01    2.900e-01    8.000e-02    1.000e-00  
  3.0000e-01    3.000e-01    8.000e-02    1.000e-00  
  3.1000e-01    3.100e-01    8.000e-02    1.000e-00  
  3.2000e-01    3.200e-01    8.000e-02    1.000e-00  
  3.3000e-01    3.300e-01    8.000e-02    1.000e-00  
  3.4000e-01    3.400e-01    8.000e-02    1.000e-00  
  3.5000e-01    3.500e-01    8.000e-02    1.000e-00  
  3.6000e-01    3.600e-01    8.000e-02    1.000e-00  
  3.7000e-01    3.700e-01    8.000e-02    1.000e-00  
  3.8000e-01    3.800e-01    8.000e-02    1.000e-00  
  3.9000e-01    3.900e-01    8.000e-02    1.000e-00  
  4.0000e-01    4.000e-01    8.000e-02    1.000e-00  
  4.1000e-01    4.100e-01    8.000e-02    1.000e-00  
  4.2000e-01    4.200e-01    8.000e-02    1.000e-00  
  4.3000e-01    4.300e-01    8.000e-02    1.000e-00  
  4.4000e-01    4.400e-01    8.000e-02    1.000e-00  
  4.5000e-01    4.500e-01    8.000e-02    1.000e-00  
  4.6000e-01    4.600e-01    8.000e-02    1.000e-00  
  4.7000e-01    4.700e-01    8.000e-02    1.000e-00  
  4.8000e-01    4.800e-01    8.000e-02    1.000e-00  
  4.9000e-01    4.900e-01    8.000e-02    1.000e-00  
  5.0000e-01    5.000e-01    8.000e-02    1.000e-00  
  5.1000e-01    5.100e-01    8.000e-02    1.000e-00  
  5.2000e-01    5.200e-01    8.000e-02    1.000e-00  
  5.3000e-01    5.300e-01    8.000e-02    1.000e-00  
  5.4000e-01    5.400e-01    8.000e-02    1.000e-00  
  5.5000e-01    5.500e-01    8.000e-02    1.000e-00  
  5.6000e-01    5.600e-01    8.000e-02    1.000e-00  
  5.7000e-01    5.700e-01    8.000e-02    1.000e-00  
  5.8000e-01    5.800e-01    8.000e-02    1.000e-00  
  5.9000e-01    5.900e-01    8.000e-02    1.000e-00  
  6.0000e-01    6.000e-01    8.000e-02    1.000e-00  
  6.1000e-01    6.100e-01    8.000e-02    1.000e-00  
  6.2000e-01    6.200e-01    8.000e-02    1.000e-00  
  6.3000e-01    6.300e-01    8.000e-02    1.000e-00  
  6.4000e-01    6.400e-01    8.000e-02    1.000e-00  
  6.5000e-01    6.500e-01    8.000e-02    1.000e-00  
  6.6000e-01    6.600e-01    8.000e-02    1.000e-00  
  6.7000e-01    6.700e-01    8.000e-02    1.000e-00  
  6.8000e-01    6.800e-01    8.000e-02    1.000e-00  
  6.9000e-01    6.900e-01    8.000e-02    1.000e-00  
  7.0000e-01    7.000e-01    8.000e-02    1.000e-00  
  7.1000e-01    7.100e-01    8.000e-02    1.000e-00  
  7.2000e-01    7.200e-01    8.000e-02    1.000e-00  
  7.3000e-01    7.300e-01    8.000e-02    1.000e-00  
  7.4000e-01    7.400e-01    8.000e-02    1.000e-00  
  7.5000e-01    7.500e-01    8.000e-02    1.000e-00  
  7.6000e-01    7.600e-01    8.000e-02    1.000e-00  
  7.7000e-01    7.700e-01    8.000e-02    1.000e-00  
  7.8000e-01    7.800e-01    8.000e-02    1.000e-00  
  7.9000e-01    7.900e-01    8.000e-02    1.000e-00  
  8.0000e-01    8.000e-01    8.000e-02    1.000e-00  
  8.1000e-01    8.100e-01    8.000e-02    1.000e-00  
  8.2000e-01    8.200e-01    8.000e-02    1.000e-00  
  8.3000e-01    8.300e-01    8.000e-02    1.000e-00  
  8.4000e-01    8.400e-01    8.000e-02    1.000e-00  
  8.5000e-01    8.500e-01    8.000e-02    1.000e-00  
  8.6000e-01    8.600e-01    8.000e-02    1.000e-00  
  8.7000e-01    8.700e-01    8.000e-02    1.000e-00  
  8.8000e-01    8.800e-01    8.000e-02    1.000e-00  
  8.9000e-01    8.900e-01    8.000e-02    1.000e-00  
  9.0000e-01    9.000e-01    8.000e-02    1.000e-00  
  9.1000e-01    9.100e-01    8.000e-02    1.000e-00  
  9.2000e-01    9.200e-01    8.000e-02    1.000e-00  
  9.3000e-01    9.300e-01    8.000e-02    1.000e-00  
  9.4000e-01    9.400e-01    8.000e-02    1.000e-00  
  9.5000e-01    9.500e-01    8.000e-02    1.000e-00  
  9.6000e-01    9.600e-01    8.000e-02    1.000e-00  
  9.7000e-01    9.700e-01    8.000e-02    1.000e-00  
  9.8000e-01    9.800e-01    8.000e-02    1.000e-00  
  9.9000e-01    9.900e-01    8.000e-02    1.000e-00  
  1.0000e+00    1.000e+00    8.000e-02    1.000e-00  
y
-----------------------------------------------
 ******  
 'inverter'

  ******  dc transfer curves tnom=  25.000 temp=  25.000 *****

   *** source        0:vin2 =  9.000e-02       ***

x

        volt    voltage      voltage      voltage    
                    in1          in2          out    
  0.0000e+00    0.000e+00    9.000e-02    1.000e-00  
  1.0000e-02    1.000e-02    9.000e-02    1.000e-00  
  2.0000e-02    2.000e-02    9.000e-02    1.000e-00  
  3.0000e-02    3.000e-02    9.000e-02    1.000e-00  
  4.0000e-02    4.000e-02    9.000e-02    1.000e-00  
  5.0000e-02    5.000e-02    9.000e-02    1.000e-00  
  6.0000e-02    6.000e-02    9.000e-02    1.000e-00  
  7.0000e-02    7.000e-02    9.000e-02    1.000e-00  
  8.0000e-02    8.000e-02    9.000e-02    1.000e-00  
  9.0000e-02    9.000e-02    9.000e-02    1.000e-00  
  1.0000e-01    1.000e-01    9.000e-02    1.000e-00  
  1.1000e-01    1.100e-01    9.000e-02    1.000e-00  
  1.2000e-01    1.200e-01    9.000e-02    1.000e-00  
  1.3000e-01    1.300e-01    9.000e-02    1.000e-00  
  1.4000e-01    1.400e-01    9.000e-02    1.000e-00  
  1.5000e-01    1.500e-01    9.000e-02    1.000e-00  
  1.6000e-01    1.600e-01    9.000e-02    1.000e-00  
  1.7000e-01    1.700e-01    9.000e-02    1.000e-00  
  1.8000e-01    1.800e-01    9.000e-02    1.000e-00  
  1.9000e-01    1.900e-01    9.000e-02    1.000e-00  
  2.0000e-01    2.000e-01    9.000e-02    1.000e-00  
  2.1000e-01    2.100e-01    9.000e-02    1.000e-00  
  2.2000e-01    2.200e-01    9.000e-02    1.000e-00  
  2.3000e-01    2.300e-01    9.000e-02    1.000e-00  
  2.4000e-01    2.400e-01    9.000e-02    1.000e-00  
  2.5000e-01    2.500e-01    9.000e-02    1.000e-00  
  2.6000e-01    2.600e-01    9.000e-02    1.000e-00  
  2.7000e-01    2.700e-01    9.000e-02    1.000e-00  
  2.8000e-01    2.800e-01    9.000e-02    1.000e-00  
  2.9000e-01    2.900e-01    9.000e-02    1.000e-00  
  3.0000e-01    3.000e-01    9.000e-02    1.000e-00  
  3.1000e-01    3.100e-01    9.000e-02    1.000e-00  
  3.2000e-01    3.200e-01    9.000e-02    1.000e-00  
  3.3000e-01    3.300e-01    9.000e-02    1.000e-00  
  3.4000e-01    3.400e-01    9.000e-02    1.000e-00  
  3.5000e-01    3.500e-01    9.000e-02    1.000e-00  
  3.6000e-01    3.600e-01    9.000e-02    1.000e-00  
  3.7000e-01    3.700e-01    9.000e-02    1.000e-00  
  3.8000e-01    3.800e-01    9.000e-02    1.000e-00  
  3.9000e-01    3.900e-01    9.000e-02    1.000e-00  
  4.0000e-01    4.000e-01    9.000e-02    1.000e-00  
  4.1000e-01    4.100e-01    9.000e-02    1.000e-00  
  4.2000e-01    4.200e-01    9.000e-02    1.000e-00  
  4.3000e-01    4.300e-01    9.000e-02    1.000e-00  
  4.4000e-01    4.400e-01    9.000e-02    1.000e-00  
  4.5000e-01    4.500e-01    9.000e-02    1.000e-00  
  4.6000e-01    4.600e-01    9.000e-02    1.000e-00  
  4.7000e-01    4.700e-01    9.000e-02    1.000e-00  
  4.8000e-01    4.800e-01    9.000e-02    1.000e-00  
  4.9000e-01    4.900e-01    9.000e-02    1.000e-00  
  5.0000e-01    5.000e-01    9.000e-02    1.000e-00  
  5.1000e-01    5.100e-01    9.000e-02    1.000e-00  
  5.2000e-01    5.200e-01    9.000e-02    1.000e-00  
  5.3000e-01    5.300e-01    9.000e-02    1.000e-00  
  5.4000e-01    5.400e-01    9.000e-02    1.000e-00  
  5.5000e-01    5.500e-01    9.000e-02    1.000e-00  
  5.6000e-01    5.600e-01    9.000e-02    1.000e-00  
  5.7000e-01    5.700e-01    9.000e-02    1.000e-00  
  5.8000e-01    5.800e-01    9.000e-02    1.000e-00  
  5.9000e-01    5.900e-01    9.000e-02    1.000e-00  
  6.0000e-01    6.000e-01    9.000e-02    1.000e-00  
  6.1000e-01    6.100e-01    9.000e-02    1.000e-00  
  6.2000e-01    6.200e-01    9.000e-02    1.000e-00  
  6.3000e-01    6.300e-01    9.000e-02    1.000e-00  
  6.4000e-01    6.400e-01    9.000e-02    1.000e-00  
  6.5000e-01    6.500e-01    9.000e-02    1.000e-00  
  6.6000e-01    6.600e-01    9.000e-02    1.000e-00  
  6.7000e-01    6.700e-01    9.000e-02    1.000e-00  
  6.8000e-01    6.800e-01    9.000e-02    1.000e-00  
  6.9000e-01    6.900e-01    9.000e-02    1.000e-00  
  7.0000e-01    7.000e-01    9.000e-02    1.000e-00  
  7.1000e-01    7.100e-01    9.000e-02    1.000e-00  
  7.2000e-01    7.200e-01    9.000e-02    1.000e-00  
  7.3000e-01    7.300e-01    9.000e-02    1.000e-00  
  7.4000e-01    7.400e-01    9.000e-02    1.000e-00  
  7.5000e-01    7.500e-01    9.000e-02    1.000e-00  
  7.6000e-01    7.600e-01    9.000e-02    1.000e-00  
  7.7000e-01    7.700e-01    9.000e-02    1.000e-00  
  7.8000e-01    7.800e-01    9.000e-02    1.000e-00  
  7.9000e-01    7.900e-01    9.000e-02    1.000e-00  
  8.0000e-01    8.000e-01    9.000e-02    1.000e-00  
  8.1000e-01    8.100e-01    9.000e-02    1.000e-00  
  8.2000e-01    8.200e-01    9.000e-02    1.000e-00  
  8.3000e-01    8.300e-01    9.000e-02    1.000e-00  
  8.4000e-01    8.400e-01    9.000e-02    1.000e-00  
  8.5000e-01    8.500e-01    9.000e-02    1.000e-00  
  8.6000e-01    8.600e-01    9.000e-02    1.000e-00  
  8.7000e-01    8.700e-01    9.000e-02    1.000e-00  
  8.8000e-01    8.800e-01    9.000e-02    1.000e-00  
  8.9000e-01    8.900e-01    9.000e-02    1.000e-00  
  9.0000e-01    9.000e-01    9.000e-02    1.000e-00  
  9.1000e-01    9.100e-01    9.000e-02    1.000e-00  
  9.2000e-01    9.200e-01    9.000e-02    1.000e-00  
  9.3000e-01    9.300e-01    9.000e-02    1.000e-00  
  9.4000e-01    9.400e-01    9.000e-02    1.000e-00  
  9.5000e-01    9.500e-01    9.000e-02    1.000e-00  
  9.6000e-01    9.600e-01    9.000e-02    1.000e-00  
  9.7000e-01    9.700e-01    9.000e-02    1.000e-00  
  9.8000e-01    9.800e-01    9.000e-02    1.000e-00  
  9.9000e-01    9.900e-01    9.000e-02    1.000e-00  
  1.0000e+00    1.000e+00    9.000e-02    1.000e-00  
y
-----------------------------------------------
 ******  
 'inverter'

  ******  dc transfer curves tnom=  25.000 temp=  25.000 *****

   *** source        0:vin2 =  1.000e-01       ***

x

        volt    voltage      voltage      voltage    
                    in1          in2          out    
  0.0000e+00    0.000e+00    1.000e-01    1.000e-00  
  1.0000e-02    1.000e-02    1.000e-01    1.000e-00  
  2.0000e-02    2.000e-02    1.000e-01    1.000e-00  
  3.0000e-02    3.000e-02    1.000e-01    1.000e-00  
  4.0000e-02    4.000e-02    1.000e-01    1.000e-00  
  5.0000e-02    5.000e-02    1.000e-01    1.000e-00  
  6.0000e-02    6.000e-02    1.000e-01    1.000e-00  
  7.0000e-02    7.000e-02    1.000e-01    1.000e-00  
  8.0000e-02    8.000e-02    1.000e-01    1.000e-00  
  9.0000e-02    9.000e-02    1.000e-01    1.000e-00  
  1.0000e-01    1.000e-01    1.000e-01    1.000e-00  
  1.1000e-01    1.100e-01    1.000e-01    1.000e-00  
  1.2000e-01    1.200e-01    1.000e-01    1.000e-00  
  1.3000e-01    1.300e-01    1.000e-01    1.000e-00  
  1.4000e-01    1.400e-01    1.000e-01    1.000e-00  
  1.5000e-01    1.500e-01    1.000e-01    1.000e-00  
  1.6000e-01    1.600e-01    1.000e-01    1.000e-00  
  1.7000e-01    1.700e-01    1.000e-01    1.000e-00  
  1.8000e-01    1.800e-01    1.000e-01    1.000e-00  
  1.9000e-01    1.900e-01    1.000e-01    1.000e-00  
  2.0000e-01    2.000e-01    1.000e-01    1.000e-00  
  2.1000e-01    2.100e-01    1.000e-01    1.000e-00  
  2.2000e-01    2.200e-01    1.000e-01    1.000e-00  
  2.3000e-01    2.300e-01    1.000e-01    1.000e-00  
  2.4000e-01    2.400e-01    1.000e-01    1.000e-00  
  2.5000e-01    2.500e-01    1.000e-01    1.000e-00  
  2.6000e-01    2.600e-01    1.000e-01    1.000e-00  
  2.7000e-01    2.700e-01    1.000e-01    1.000e-00  
  2.8000e-01    2.800e-01    1.000e-01    1.000e-00  
  2.9000e-01    2.900e-01    1.000e-01    1.000e-00  
  3.0000e-01    3.000e-01    1.000e-01    1.000e-00  
  3.1000e-01    3.100e-01    1.000e-01    1.000e-00  
  3.2000e-01    3.200e-01    1.000e-01    1.000e-00  
  3.3000e-01    3.300e-01    1.000e-01    1.000e-00  
  3.4000e-01    3.400e-01    1.000e-01    1.000e-00  
  3.5000e-01    3.500e-01    1.000e-01    1.000e-00  
  3.6000e-01    3.600e-01    1.000e-01    1.000e-00  
  3.7000e-01    3.700e-01    1.000e-01    1.000e-00  
  3.8000e-01    3.800e-01    1.000e-01    1.000e-00  
  3.9000e-01    3.900e-01    1.000e-01    1.000e-00  
  4.0000e-01    4.000e-01    1.000e-01    1.000e-00  
  4.1000e-01    4.100e-01    1.000e-01    1.000e-00  
  4.2000e-01    4.200e-01    1.000e-01    1.000e-00  
  4.3000e-01    4.300e-01    1.000e-01    1.000e-00  
  4.4000e-01    4.400e-01    1.000e-01    1.000e-00  
  4.5000e-01    4.500e-01    1.000e-01    1.000e-00  
  4.6000e-01    4.600e-01    1.000e-01    1.000e-00  
  4.7000e-01    4.700e-01    1.000e-01    1.000e-00  
  4.8000e-01    4.800e-01    1.000e-01    1.000e-00  
  4.9000e-01    4.900e-01    1.000e-01    1.000e-00  
  5.0000e-01    5.000e-01    1.000e-01    1.000e-00  
  5.1000e-01    5.100e-01    1.000e-01    1.000e-00  
  5.2000e-01    5.200e-01    1.000e-01    1.000e-00  
  5.3000e-01    5.300e-01    1.000e-01    1.000e-00  
  5.4000e-01    5.400e-01    1.000e-01    1.000e-00  
  5.5000e-01    5.500e-01    1.000e-01    1.000e-00  
  5.6000e-01    5.600e-01    1.000e-01    1.000e-00  
  5.7000e-01    5.700e-01    1.000e-01    1.000e-00  
  5.8000e-01    5.800e-01    1.000e-01    1.000e-00  
  5.9000e-01    5.900e-01    1.000e-01    1.000e-00  
  6.0000e-01    6.000e-01    1.000e-01    1.000e-00  
  6.1000e-01    6.100e-01    1.000e-01    1.000e-00  
  6.2000e-01    6.200e-01    1.000e-01    1.000e-00  
  6.3000e-01    6.300e-01    1.000e-01    1.000e-00  
  6.4000e-01    6.400e-01    1.000e-01    1.000e-00  
  6.5000e-01    6.500e-01    1.000e-01    1.000e-00  
  6.6000e-01    6.600e-01    1.000e-01    1.000e-00  
  6.7000e-01    6.700e-01    1.000e-01    1.000e-00  
  6.8000e-01    6.800e-01    1.000e-01    1.000e-00  
  6.9000e-01    6.900e-01    1.000e-01    1.000e-00  
  7.0000e-01    7.000e-01    1.000e-01    1.000e-00  
  7.1000e-01    7.100e-01    1.000e-01    1.000e-00  
  7.2000e-01    7.200e-01    1.000e-01    1.000e-00  
  7.3000e-01    7.300e-01    1.000e-01    1.000e-00  
  7.4000e-01    7.400e-01    1.000e-01    1.000e-00  
  7.5000e-01    7.500e-01    1.000e-01    1.000e-00  
  7.6000e-01    7.600e-01    1.000e-01    1.000e-00  
  7.7000e-01    7.700e-01    1.000e-01    1.000e-00  
  7.8000e-01    7.800e-01    1.000e-01    1.000e-00  
  7.9000e-01    7.900e-01    1.000e-01    1.000e-00  
  8.0000e-01    8.000e-01    1.000e-01    1.000e-00  
  8.1000e-01    8.100e-01    1.000e-01    1.000e-00  
  8.2000e-01    8.200e-01    1.000e-01    1.000e-00  
  8.3000e-01    8.300e-01    1.000e-01    1.000e-00  
  8.4000e-01    8.400e-01    1.000e-01    1.000e-00  
  8.5000e-01    8.500e-01    1.000e-01    1.000e-00  
  8.6000e-01    8.600e-01    1.000e-01    1.000e-00  
  8.7000e-01    8.700e-01    1.000e-01    1.000e-00  
  8.8000e-01    8.800e-01    1.000e-01    1.000e-00  
  8.9000e-01    8.900e-01    1.000e-01    1.000e-00  
  9.0000e-01    9.000e-01    1.000e-01    1.000e-00  
  9.1000e-01    9.100e-01    1.000e-01    1.000e-00  
  9.2000e-01    9.200e-01    1.000e-01    1.000e-00  
  9.3000e-01    9.300e-01    1.000e-01    1.000e-00  
  9.4000e-01    9.400e-01    1.000e-01    1.000e-00  
  9.5000e-01    9.500e-01    1.000e-01    1.000e-00  
  9.6000e-01    9.600e-01    1.000e-01    1.000e-00  
  9.7000e-01    9.700e-01    1.000e-01    1.000e-00  
  9.8000e-01    9.800e-01    1.000e-01    1.000e-00  
  9.9000e-01    9.900e-01    1.000e-01    1.000e-00  
  1.0000e+00    1.000e+00    1.000e-01    1.000e-00  
y
-----------------------------------------------
 ******  
 'inverter'

  ******  dc transfer curves tnom=  25.000 temp=  25.000 *****

   *** source        0:vin2 =  1.100e-01       ***

x

        volt    voltage      voltage      voltage    
                    in1          in2          out    
  0.0000e+00    0.000e+00    1.100e-01    1.000e-00  
  1.0000e-02    1.000e-02    1.100e-01    1.000e-00  
  2.0000e-02    2.000e-02    1.100e-01    1.000e-00  
  3.0000e-02    3.000e-02    1.100e-01    1.000e-00  
  4.0000e-02    4.000e-02    1.100e-01    1.000e-00  
  5.0000e-02    5.000e-02    1.100e-01    1.000e-00  
  6.0000e-02    6.000e-02    1.100e-01    1.000e-00  
  7.0000e-02    7.000e-02    1.100e-01    1.000e-00  
  8.0000e-02    8.000e-02    1.100e-01    1.000e-00  
  9.0000e-02    9.000e-02    1.100e-01    1.000e-00  
  1.0000e-01    1.000e-01    1.100e-01    1.000e-00  
  1.1000e-01    1.100e-01    1.100e-01    1.000e-00  
  1.2000e-01    1.200e-01    1.100e-01    1.000e-00  
  1.3000e-01    1.300e-01    1.100e-01    1.000e-00  
  1.4000e-01    1.400e-01    1.100e-01    1.000e-00  
  1.5000e-01    1.500e-01    1.100e-01    1.000e-00  
  1.6000e-01    1.600e-01    1.100e-01    1.000e-00  
  1.7000e-01    1.700e-01    1.100e-01    1.000e-00  
  1.8000e-01    1.800e-01    1.100e-01    1.000e-00  
  1.9000e-01    1.900e-01    1.100e-01    1.000e-00  
  2.0000e-01    2.000e-01    1.100e-01    1.000e-00  
  2.1000e-01    2.100e-01    1.100e-01    1.000e-00  
  2.2000e-01    2.200e-01    1.100e-01    1.000e-00  
  2.3000e-01    2.300e-01    1.100e-01    1.000e-00  
  2.4000e-01    2.400e-01    1.100e-01    1.000e-00  
  2.5000e-01    2.500e-01    1.100e-01    1.000e-00  
  2.6000e-01    2.600e-01    1.100e-01    1.000e-00  
  2.7000e-01    2.700e-01    1.100e-01    1.000e-00  
  2.8000e-01    2.800e-01    1.100e-01    1.000e-00  
  2.9000e-01    2.900e-01    1.100e-01    1.000e-00  
  3.0000e-01    3.000e-01    1.100e-01    1.000e-00  
  3.1000e-01    3.100e-01    1.100e-01    1.000e-00  
  3.2000e-01    3.200e-01    1.100e-01    1.000e-00  
  3.3000e-01    3.300e-01    1.100e-01    1.000e-00  
  3.4000e-01    3.400e-01    1.100e-01    1.000e-00  
  3.5000e-01    3.500e-01    1.100e-01    1.000e-00  
  3.6000e-01    3.600e-01    1.100e-01    1.000e-00  
  3.7000e-01    3.700e-01    1.100e-01    1.000e-00  
  3.8000e-01    3.800e-01    1.100e-01    1.000e-00  
  3.9000e-01    3.900e-01    1.100e-01    1.000e-00  
  4.0000e-01    4.000e-01    1.100e-01    1.000e-00  
  4.1000e-01    4.100e-01    1.100e-01    1.000e-00  
  4.2000e-01    4.200e-01    1.100e-01    1.000e-00  
  4.3000e-01    4.300e-01    1.100e-01    1.000e-00  
  4.4000e-01    4.400e-01    1.100e-01    1.000e-00  
  4.5000e-01    4.500e-01    1.100e-01    1.000e-00  
  4.6000e-01    4.600e-01    1.100e-01    1.000e-00  
  4.7000e-01    4.700e-01    1.100e-01    1.000e-00  
  4.8000e-01    4.800e-01    1.100e-01    1.000e-00  
  4.9000e-01    4.900e-01    1.100e-01    1.000e-00  
  5.0000e-01    5.000e-01    1.100e-01    1.000e-00  
  5.1000e-01    5.100e-01    1.100e-01    1.000e-00  
  5.2000e-01    5.200e-01    1.100e-01    1.000e-00  
  5.3000e-01    5.300e-01    1.100e-01    1.000e-00  
  5.4000e-01    5.400e-01    1.100e-01    1.000e-00  
  5.5000e-01    5.500e-01    1.100e-01    1.000e-00  
  5.6000e-01    5.600e-01    1.100e-01    1.000e-00  
  5.7000e-01    5.700e-01    1.100e-01    1.000e-00  
  5.8000e-01    5.800e-01    1.100e-01    1.000e-00  
  5.9000e-01    5.900e-01    1.100e-01    1.000e-00  
  6.0000e-01    6.000e-01    1.100e-01    1.000e-00  
  6.1000e-01    6.100e-01    1.100e-01    1.000e-00  
  6.2000e-01    6.200e-01    1.100e-01    1.000e-00  
  6.3000e-01    6.300e-01    1.100e-01    1.000e-00  
  6.4000e-01    6.400e-01    1.100e-01    1.000e-00  
  6.5000e-01    6.500e-01    1.100e-01    1.000e-00  
  6.6000e-01    6.600e-01    1.100e-01    1.000e-00  
  6.7000e-01    6.700e-01    1.100e-01    1.000e-00  
  6.8000e-01    6.800e-01    1.100e-01    1.000e-00  
  6.9000e-01    6.900e-01    1.100e-01    1.000e-00  
  7.0000e-01    7.000e-01    1.100e-01    1.000e-00  
  7.1000e-01    7.100e-01    1.100e-01    1.000e-00  
  7.2000e-01    7.200e-01    1.100e-01    1.000e-00  
  7.3000e-01    7.300e-01    1.100e-01    1.000e-00  
  7.4000e-01    7.400e-01    1.100e-01    1.000e-00  
  7.5000e-01    7.500e-01    1.100e-01    1.000e-00  
  7.6000e-01    7.600e-01    1.100e-01    1.000e-00  
  7.7000e-01    7.700e-01    1.100e-01    1.000e-00  
  7.8000e-01    7.800e-01    1.100e-01    1.000e-00  
  7.9000e-01    7.900e-01    1.100e-01    1.000e-00  
  8.0000e-01    8.000e-01    1.100e-01    1.000e-00  
  8.1000e-01    8.100e-01    1.100e-01    1.000e-00  
  8.2000e-01    8.200e-01    1.100e-01    1.000e-00  
  8.3000e-01    8.300e-01    1.100e-01    1.000e-00  
  8.4000e-01    8.400e-01    1.100e-01    1.000e-00  
  8.5000e-01    8.500e-01    1.100e-01    1.000e-00  
  8.6000e-01    8.600e-01    1.100e-01    1.000e-00  
  8.7000e-01    8.700e-01    1.100e-01    1.000e-00  
  8.8000e-01    8.800e-01    1.100e-01    1.000e-00  
  8.9000e-01    8.900e-01    1.100e-01    1.000e-00  
  9.0000e-01    9.000e-01    1.100e-01    1.000e-00  
  9.1000e-01    9.100e-01    1.100e-01    1.000e-00  
  9.2000e-01    9.200e-01    1.100e-01    1.000e-00  
  9.3000e-01    9.300e-01    1.100e-01    1.000e-00  
  9.4000e-01    9.400e-01    1.100e-01    1.000e-00  
  9.5000e-01    9.500e-01    1.100e-01    1.000e-00  
  9.6000e-01    9.600e-01    1.100e-01    1.000e-00  
  9.7000e-01    9.700e-01    1.100e-01    1.000e-00  
  9.8000e-01    9.800e-01    1.100e-01    1.000e-00  
  9.9000e-01    9.900e-01    1.100e-01    1.000e-00  
  1.0000e+00    1.000e+00    1.100e-01    1.000e-00  
y
-----------------------------------------------
 ******  
 'inverter'

  ******  dc transfer curves tnom=  25.000 temp=  25.000 *****

   *** source        0:vin2 =  1.200e-01       ***

x

        volt    voltage      voltage      voltage    
                    in1          in2          out    
  0.0000e+00    0.000e+00    1.200e-01    1.000e-00  
  1.0000e-02    1.000e-02    1.200e-01    1.000e-00  
  2.0000e-02    2.000e-02    1.200e-01    1.000e-00  
  3.0000e-02    3.000e-02    1.200e-01    1.000e-00  
  4.0000e-02    4.000e-02    1.200e-01    1.000e-00  
  5.0000e-02    5.000e-02    1.200e-01    1.000e-00  
  6.0000e-02    6.000e-02    1.200e-01    1.000e-00  
  7.0000e-02    7.000e-02    1.200e-01    1.000e-00  
  8.0000e-02    8.000e-02    1.200e-01    1.000e-00  
  9.0000e-02    9.000e-02    1.200e-01    1.000e-00  
  1.0000e-01    1.000e-01    1.200e-01    1.000e-00  
  1.1000e-01    1.100e-01    1.200e-01    1.000e-00  
  1.2000e-01    1.200e-01    1.200e-01    1.000e-00  
  1.3000e-01    1.300e-01    1.200e-01    1.000e-00  
  1.4000e-01    1.400e-01    1.200e-01    1.000e-00  
  1.5000e-01    1.500e-01    1.200e-01    1.000e-00  
  1.6000e-01    1.600e-01    1.200e-01    1.000e-00  
  1.7000e-01    1.700e-01    1.200e-01    1.000e-00  
  1.8000e-01    1.800e-01    1.200e-01    1.000e-00  
  1.9000e-01    1.900e-01    1.200e-01    1.000e-00  
  2.0000e-01    2.000e-01    1.200e-01    1.000e-00  
  2.1000e-01    2.100e-01    1.200e-01    1.000e-00  
  2.2000e-01    2.200e-01    1.200e-01    1.000e-00  
  2.3000e-01    2.300e-01    1.200e-01    1.000e-00  
  2.4000e-01    2.400e-01    1.200e-01    1.000e-00  
  2.5000e-01    2.500e-01    1.200e-01    1.000e-00  
  2.6000e-01    2.600e-01    1.200e-01    1.000e-00  
  2.7000e-01    2.700e-01    1.200e-01    1.000e-00  
  2.8000e-01    2.800e-01    1.200e-01    1.000e-00  
  2.9000e-01    2.900e-01    1.200e-01    1.000e-00  
  3.0000e-01    3.000e-01    1.200e-01    1.000e-00  
  3.1000e-01    3.100e-01    1.200e-01    1.000e-00  
  3.2000e-01    3.200e-01    1.200e-01    1.000e-00  
  3.3000e-01    3.300e-01    1.200e-01    1.000e-00  
  3.4000e-01    3.400e-01    1.200e-01    1.000e-00  
  3.5000e-01    3.500e-01    1.200e-01    1.000e-00  
  3.6000e-01    3.600e-01    1.200e-01    1.000e-00  
  3.7000e-01    3.700e-01    1.200e-01    1.000e-00  
  3.8000e-01    3.800e-01    1.200e-01    1.000e-00  
[...]
  4.7000e-01    4.700e-01    9.100e-01    9.773e-01  
  4.8000e-01    4.800e-01    9.100e-01    9.679e-01  
  4.9000e-01    4.900e-01    9.100e-01    9.516e-01  
  5.0000e-01    5.000e-01    9.100e-01    8.921e-01  
  5.1000e-01    5.100e-01    9.100e-01    5.793e-02  
  5.2000e-01    5.200e-01    9.100e-01    3.688e-02  
  5.3000e-01    5.300e-01    9.100e-01    2.577e-02  
  5.4000e-01    5.400e-01    9.100e-01    1.859e-02  
  5.5000e-01    5.500e-01    9.100e-01    1.357e-02  
  5.6000e-01    5.600e-01    9.100e-01    9.928e-03  
  5.7000e-01    5.700e-01    9.100e-01    7.242e-03  
  5.8000e-01    5.800e-01    9.100e-01    5.251e-03  
  5.9000e-01    5.900e-01    9.100e-01    3.778e-03  
  6.0000e-01    6.000e-01    9.100e-01    2.696e-03  
  6.1000e-01    6.100e-01    9.100e-01    1.908e-03  
  6.2000e-01    6.200e-01    9.100e-01    1.341e-03  
  6.3000e-01    6.300e-01    9.100e-01    9.365e-04  
  6.4000e-01    6.400e-01    9.100e-01    6.510e-04  
  6.5000e-01    6.500e-01    9.100e-01    4.509e-04  
  6.6000e-01    6.600e-01    9.100e-01    3.114e-04  
  6.7000e-01    6.700e-01    9.100e-01    2.147e-04  
  6.8000e-01    6.800e-01    9.100e-01    1.479e-04  
  6.9000e-01    6.900e-01    9.100e-01    1.018e-04  
  7.0000e-01    7.000e-01    9.100e-01    7.003e-05  
  7.1000e-01    7.100e-01    9.100e-01    4.818e-05  
  7.2000e-01    7.200e-01    9.100e-01    3.315e-05  
  7.3000e-01    7.300e-01    9.100e-01    2.280e-05  
  7.4000e-01    7.400e-01    9.100e-01    1.568e-05  
  7.5000e-01    7.500e-01    9.100e-01    1.077e-05  
  7.6000e-01    7.600e-01    9.100e-01    7.395e-06  
  7.7000e-01    7.700e-01    9.100e-01    5.065e-06  
  7.8000e-01    7.800e-01    9.100e-01    3.458e-06  
  7.9000e-01    7.900e-01    9.100e-01    2.349e-06  
  8.0000e-01    8.000e-01    9.100e-01    1.584e-06  
  8.1000e-01    8.100e-01    9.100e-01    1.055e-06  
  8.2000e-01    8.200e-01    9.100e-01    6.906e-07  
  8.3000e-01    8.300e-01    9.100e-01    0.000e+00  
  8.4000e-01    8.400e-01    9.100e-01    0.000e+00  
  8.5000e-01    8.500e-01    9.100e-01    0.000e+00  
  8.6000e-01    8.600e-01    9.100e-01    0.000e+00  
  8.7000e-01    8.700e-01    9.100e-01    0.000e+00  
  8.8000e-01    8.800e-01    9.100e-01    0.000e+00  
  8.9000e-01    8.900e-01    9.100e-01    0.000e+00  
  9.0000e-01    9.000e-01    9.100e-01    0.000e+00  
  9.1000e-01    9.100e-01    9.100e-01    0.000e+00  
  9.2000e-01    9.200e-01    9.100e-01    0.000e+00  
  9.3000e-01    9.300e-01    9.100e-01    0.000e+00  
  9.4000e-01    9.400e-01    9.100e-01    0.000e+00  
  9.5000e-01    9.500e-01    9.100e-01    0.000e+00  
  9.6000e-01    9.600e-01    9.100e-01    0.000e+00  
  9.7000e-01    9.700e-01    9.100e-01    0.000e+00  
  9.8000e-01    9.800e-01    9.100e-01    0.000e+00  
  9.9000e-01    9.900e-01    9.100e-01    0.000e+00  
  1.0000e+00    1.000e+00    9.100e-01    0.000e+00  
y
-----------------------------------------------
 convergence problems in dc sweep curves at  0.51000    
  resimulating with dc convergence controls

 ******  
 'inverter'

  ******  dc transfer curves tnom=  25.000 temp=  25.000 *****

   *** source        0:vin2 =  9.200e-01       ***

x

        volt    voltage      voltage      voltage    
                    in1          in2          out    
  0.0000e+00    0.000e+00    9.200e-01    1.000e-00  
  1.0000e-02    1.000e-02    9.200e-01    1.000e-00  
  2.0000e-02    2.000e-02    9.200e-01    1.000e-00  
  3.0000e-02    3.000e-02    9.200e-01    1.000e-00  
  4.0000e-02    4.000e-02    9.200e-01    1.000e-00  
  5.0000e-02    5.000e-02    9.200e-01    1.000e-00  
  6.0000e-02    6.000e-02    9.200e-01    1.000e-00  
  7.0000e-02    7.000e-02    9.200e-01    1.000e-00  
  8.0000e-02    8.000e-02    9.200e-01    1.000e-00  
  9.0000e-02    9.000e-02    9.200e-01    1.000e-00  
  1.0000e-01    1.000e-01    9.200e-01    1.000e-00  
  1.1000e-01    1.100e-01    9.200e-01    1.000e-00  
  1.2000e-01    1.200e-01    9.200e-01    1.000e-00  
  1.3000e-01    1.300e-01    9.200e-01    1.000e-00  
  1.4000e-01    1.400e-01    9.200e-01    1.000e-00  
  1.5000e-01    1.500e-01    9.200e-01    1.000e-00  
  1.6000e-01    1.600e-01    9.200e-01    1.000e-00  
  1.7000e-01    1.700e-01    9.200e-01    1.000e-00  
  1.8000e-01    1.800e-01    9.200e-01    1.000e-00  
  1.9000e-01    1.900e-01    9.200e-01    1.000e-00  
  2.0000e-01    2.000e-01    9.200e-01    1.000e-00  
  2.1000e-01    2.100e-01    9.200e-01    1.000e-00  
  2.2000e-01    2.200e-01    9.200e-01    1.000e-00  
  2.3000e-01    2.300e-01    9.200e-01    1.000e-00  
  2.4000e-01    2.400e-01    9.200e-01    1.000e-00  
  2.5000e-01    2.500e-01    9.200e-01    1.000e-00  
  2.6000e-01    2.600e-01    9.200e-01    1.000e-00  
  2.7000e-01    2.700e-01    9.200e-01    1.000e-00  
  2.8000e-01    2.800e-01    9.200e-01    1.000e-00  
  2.9000e-01    2.900e-01    9.200e-01    1.000e-00  
  3.0000e-01    3.000e-01    9.200e-01    9.999e-01  
  3.1000e-01    3.100e-01    9.200e-01    9.999e-01  
  3.2000e-01    3.200e-01    9.200e-01    9.999e-01  
  3.3000e-01    3.300e-01    9.200e-01    9.998e-01  
  3.4000e-01    3.400e-01    9.200e-01    9.997e-01  
  3.5000e-01    3.500e-01    9.200e-01    9.996e-01  
  3.6000e-01    3.600e-01    9.200e-01    9.994e-01  
  3.7000e-01    3.700e-01    9.200e-01    9.992e-01  
  3.8000e-01    3.800e-01    9.200e-01    9.988e-01  
  3.9000e-01    3.900e-01    9.200e-01    9.984e-01  
  4.0000e-01    4.000e-01    9.200e-01    9.977e-01  
  4.1000e-01    4.100e-01    9.200e-01    9.967e-01  
  4.2000e-01    4.200e-01    9.200e-01    9.954e-01  
  4.3000e-01    4.300e-01    9.200e-01    9.936e-01  
  4.4000e-01    4.400e-01    9.200e-01    9.913e-01  
  4.5000e-01    4.500e-01    9.200e-01    9.880e-01  
  4.6000e-01    4.600e-01    9.200e-01    9.836e-01  
  4.7000e-01    4.700e-01    9.200e-01    9.773e-01  
  4.8000e-01    4.800e-01    9.200e-01    9.678e-01  
  4.9000e-01    4.900e-01    9.200e-01    9.515e-01  
  5.0000e-01    5.000e-01    9.200e-01    8.906e-01  
  5.1000e-01    5.100e-01    9.200e-01    5.759e-02  
  5.2000e-01    5.200e-01    9.200e-01    3.669e-02  
  5.3000e-01    5.300e-01    9.200e-01    2.564e-02  
  5.4000e-01    5.400e-01    9.200e-01    1.849e-02  
  5.5000e-01    5.500e-01    9.200e-01    1.349e-02  
  5.6000e-01    5.600e-01    9.200e-01    9.869e-03  
  5.7000e-01    5.700e-01    9.200e-01    7.196e-03  
  5.8000e-01    5.800e-01    9.200e-01    5.215e-03  
  5.9000e-01    5.900e-01    9.200e-01    3.751e-03  
  6.0000e-01    6.000e-01    9.200e-01    2.675e-03  
  6.1000e-01    6.100e-01    9.200e-01    1.893e-03  
  6.2000e-01    6.200e-01    9.200e-01    1.329e-03  
  6.3000e-01    6.300e-01    9.200e-01    9.279e-04  
  6.4000e-01    6.400e-01    9.200e-01    6.446e-04  
  6.5000e-01    6.500e-01    9.200e-01    4.462e-04  
  6.6000e-01    6.600e-01    9.200e-01    3.080e-04  
  6.7000e-01    6.700e-01    9.200e-01    2.122e-04  
  6.8000e-01    6.800e-01    9.200e-01    1.461e-04  
  6.9000e-01    6.900e-01    9.200e-01    1.005e-04  
  7.0000e-01    7.000e-01    9.200e-01    6.908e-05  
  7.1000e-01    7.100e-01    9.200e-01    4.750e-05  
  7.2000e-01    7.200e-01    9.200e-01    3.265e-05  
  7.3000e-01    7.300e-01    9.200e-01    2.244e-05  
  7.4000e-01    7.400e-01    9.200e-01    1.542e-05  
  7.5000e-01    7.500e-01    9.200e-01    1.058e-05  
  7.6000e-01    7.600e-01    9.200e-01    7.254e-06  
  7.7000e-01    7.700e-01    9.200e-01    4.961e-06  
  7.8000e-01    7.800e-01    9.200e-01    3.381e-06  
  7.9000e-01    7.900e-01    9.200e-01    2.291e-06  
  8.0000e-01    8.000e-01    9.200e-01    1.539e-06  
  8.1000e-01    8.100e-01    9.200e-01    1.021e-06  
  8.2000e-01    8.200e-01    9.200e-01    6.641e-07  
  8.3000e-01    8.300e-01    9.200e-01    0.000e+00  
  8.4000e-01    8.400e-01    9.200e-01    0.000e+00  
  8.5000e-01    8.500e-01    9.200e-01    0.000e+00  
  8.6000e-01    8.600e-01    9.200e-01    0.000e+00  
  8.7000e-01    8.700e-01    9.200e-01    0.000e+00  
  8.8000e-01    8.800e-01    9.200e-01    0.000e+00  
  8.9000e-01    8.900e-01    9.200e-01    0.000e+00  
  9.0000e-01    9.000e-01    9.200e-01    0.000e+00  
  9.1000e-01    9.100e-01    9.200e-01    0.000e+00  
  9.2000e-01    9.200e-01    9.200e-01    0.000e+00  
  9.3000e-01    9.300e-01    9.200e-01    0.000e+00  
  9.4000e-01    9.400e-01    9.200e-01    0.000e+00  
  9.5000e-01    9.500e-01    9.200e-01    0.000e+00  
  9.6000e-01    9.600e-01    9.200e-01    0.000e+00  
  9.7000e-01    9.700e-01    9.200e-01    0.000e+00  
  9.8000e-01    9.800e-01    9.200e-01    0.000e+00  
  9.9000e-01    9.900e-01    9.200e-01    0.000e+00  
  1.0000e+00    1.000e+00    9.200e-01    0.000e+00  
y
-----------------------------------------------
 convergence problems in dc sweep curves at  0.51000    
  resimulating with dc convergence controls

 ******  
 'inverter'

  ******  dc transfer curves tnom=  25.000 temp=  25.000 *****

   *** source        0:vin2 =  9.300e-01       ***

x

        volt    voltage      voltage      voltage    
                    in1          in2          out    
  0.0000e+00    0.000e+00    9.300e-01    1.000e-00  
  1.0000e-02    1.000e-02    9.300e-01    1.000e-00  
  2.0000e-02    2.000e-02    9.300e-01    1.000e-00  
  3.0000e-02    3.000e-02    9.300e-01    1.000e-00  
  4.0000e-02    4.000e-02    9.300e-01    1.000e-00  
  5.0000e-02    5.000e-02    9.300e-01    1.000e-00  
  6.0000e-02    6.000e-02    9.300e-01    1.000e-00  
  7.0000e-02    7.000e-02    9.300e-01    1.000e-00  
  8.0000e-02    8.000e-02    9.300e-01    1.000e-00  
  9.0000e-02    9.000e-02    9.300e-01    1.000e-00  
  1.0000e-01    1.000e-01    9.300e-01    1.000e-00  
  1.1000e-01    1.100e-01    9.300e-01    1.000e-00  
  1.2000e-01    1.200e-01    9.300e-01    1.000e-00  
  1.3000e-01    1.300e-01    9.300e-01    1.000e-00  
  1.4000e-01    1.400e-01    9.300e-01    1.000e-00  
  1.5000e-01    1.500e-01    9.300e-01    1.000e-00  
  1.6000e-01    1.600e-01    9.300e-01    1.000e-00  
  1.7000e-01    1.700e-01    9.300e-01    1.000e-00  
  1.8000e-01    1.800e-01    9.300e-01    1.000e-00  
  1.9000e-01    1.900e-01    9.300e-01    1.000e-00  
  2.0000e-01    2.000e-01    9.300e-01    1.000e-00  
  2.1000e-01    2.100e-01    9.300e-01    1.000e-00  
  2.2000e-01    2.200e-01    9.300e-01    1.000e-00  
  2.3000e-01    2.300e-01    9.300e-01    1.000e-00  
  2.4000e-01    2.400e-01    9.300e-01    1.000e-00  
  2.5000e-01    2.500e-01    9.300e-01    1.000e-00  
  2.6000e-01    2.600e-01    9.300e-01    1.000e-00  
  2.7000e-01    2.700e-01    9.300e-01    1.000e-00  
  2.8000e-01    2.800e-01    9.300e-01    1.000e-00  
  2.9000e-01    2.900e-01    9.300e-01    1.000e-00  
  3.0000e-01    3.000e-01    9.300e-01    9.999e-01  
  3.1000e-01    3.100e-01    9.300e-01    9.999e-01  
  3.2000e-01    3.200e-01    9.300e-01    9.999e-01  
  3.3000e-01    3.300e-01    9.300e-01    9.998e-01  
  3.4000e-01    3.400e-01    9.300e-01    9.997e-01  
  3.5000e-01    3.500e-01    9.300e-01    9.996e-01  
  3.6000e-01    3.600e-01    9.300e-01    9.994e-01  
  3.7000e-01    3.700e-01    9.300e-01    9.992e-01  
  3.8000e-01    3.800e-01    9.300e-01    9.988e-01  
  3.9000e-01    3.900e-01    9.300e-01    9.984e-01  
  4.0000e-01    4.000e-01    9.300e-01    9.977e-01  
  4.1000e-01    4.100e-01    9.300e-01    9.967e-01  
  4.2000e-01    4.200e-01    9.300e-01    9.954e-01  
  4.3000e-01    4.300e-01    9.300e-01    9.936e-01  
  4.4000e-01    4.400e-01    9.300e-01    9.913e-01  
  4.5000e-01    4.500e-01    9.300e-01    9.880e-01  
  4.6000e-01    4.600e-01    9.300e-01    9.836e-01  
  4.7000e-01    4.700e-01    9.300e-01    9.772e-01  
  4.8000e-01    4.800e-01    9.300e-01    9.677e-01  
  4.9000e-01    4.900e-01    9.300e-01    9.513e-01  
  5.0000e-01    5.000e-01    9.300e-01    8.890e-01  
  5.1000e-01    5.100e-01    9.300e-01    5.728e-02  
  5.2000e-01    5.200e-01    9.300e-01    3.651e-02  
  5.3000e-01    5.300e-01    9.300e-01    2.552e-02  
  5.4000e-01    5.400e-01    9.300e-01    1.840e-02  
  5.5000e-01    5.500e-01    9.300e-01    1.342e-02  
  5.6000e-01    5.600e-01    9.300e-01    9.813e-03  
  5.7000e-01    5.700e-01    9.300e-01    7.152e-03  
  5.8000e-01    5.800e-01    9.300e-01    5.181e-03  
  5.9000e-01    5.900e-01    9.300e-01    3.725e-03  
  6.0000e-01    6.000e-01    9.300e-01    2.655e-03  
  6.1000e-01    6.100e-01    9.300e-01    1.878e-03  
  6.2000e-01    6.200e-01    9.300e-01    1.318e-03  
  6.3000e-01    6.300e-01    9.300e-01    9.196e-04  
  6.4000e-01    6.400e-01    9.300e-01    6.386e-04  
  6.5000e-01    6.500e-01    9.300e-01    4.418e-04  
  6.6000e-01    6.600e-01    9.300e-01    3.048e-04  
  6.7000e-01    6.700e-01    9.300e-01    2.099e-04  
  6.8000e-01    6.800e-01    9.300e-01    1.444e-04  
  6.9000e-01    6.900e-01    9.300e-01    9.924e-05  
  7.0000e-01    7.000e-01    9.300e-01    6.819e-05  
  7.1000e-01    7.100e-01    9.300e-01    4.685e-05  
  7.2000e-01    7.200e-01    9.300e-01    3.218e-05  
  7.3000e-01    7.300e-01    9.300e-01    2.210e-05  
  7.4000e-01    7.400e-01    9.300e-01    1.517e-05  
  7.5000e-01    7.500e-01    9.300e-01    1.040e-05  
  7.6000e-01    7.600e-01    9.300e-01    7.124e-06  
  7.7000e-01    7.700e-01    9.300e-01    4.866e-06  
  7.8000e-01    7.800e-01    9.300e-01    3.311e-06  
  7.9000e-01    7.900e-01    9.300e-01    2.239e-06  
  8.0000e-01    8.000e-01    9.300e-01    1.501e-06  
  8.1000e-01    8.100e-01    9.300e-01    9.923e-07  
  8.2000e-01    8.200e-01    9.300e-01    6.421e-07  
  8.3000e-01    8.300e-01    9.300e-01    0.000e+00  
  8.4000e-01    8.400e-01    9.300e-01    0.000e+00  
  8.5000e-01    8.500e-01    9.300e-01    0.000e+00  
  8.6000e-01    8.600e-01    9.300e-01    0.000e+00  
  8.7000e-01    8.700e-01    9.300e-01    0.000e+00  
  8.8000e-01    8.800e-01    9.300e-01    0.000e+00  
  8.9000e-01    8.900e-01    9.300e-01    0.000e+00  
  9.0000e-01    9.000e-01    9.300e-01    0.000e+00  
  9.1000e-01    9.100e-01    9.300e-01    0.000e+00  
  9.2000e-01    9.200e-01    9.300e-01    0.000e+00  
  9.3000e-01    9.300e-01    9.300e-01    0.000e+00  
  9.4000e-01    9.400e-01    9.300e-01    0.000e+00  
  9.5000e-01    9.500e-01    9.300e-01    0.000e+00  
  9.6000e-01    9.600e-01    9.300e-01    0.000e+00  
  9.7000e-01    9.700e-01    9.300e-01    0.000e+00  
  9.8000e-01    9.800e-01    9.300e-01    0.000e+00  
  9.9000e-01    9.900e-01    9.300e-01    0.000e+00  
  1.0000e+00    1.000e+00    9.300e-01    0.000e+00  
y
-----------------------------------------------
  **error**  Undefined parameter or function definition "photon" for cdj. Please enter a defined name.

 **error** arith eval -- no operand address

  **error**  Undefined parameter or function definition "photon" for cdj. Please enter a defined name.

 **error** arith eval -- no operand address

  **error**  Undefined parameter or function definition "photon" for cdj. Please enter a defined name.

 **error** arith eval -- no operand address

  **error**  Undefined parameter or function definition "photon" for cdj. Please enter a defined name.

 **error** arith eval -- no operand address

  **error**  Undefined parameter or function definition "photon" for cdj. Please enter a defined name.

 **error** arith eval -- no operand address

  **error**  Undefined parameter or function definition "photon      " for cdj. Please enter a defined name.

 **error** arith eval -- no operand address

  **error**  Undefined parameter or function definition "photon      " for cdj. Please enter a defined name.

 **error** arith eval -- no operand address

  **error**  Undefined parameter or function definition "photon      " for cdj. Please enter a defined name.

 **error** arith eval -- no operand address

  **error**  Undefined parameter or function definition "photon      " for cdj. Please enter a defined name.

 **error** arith eval -- no operand address

  **error**  Undefined parameter or function definition "photon      " for cdj. Please enter a defined name.

 **error** arith eval -- no operand address

  **error**  Undefined parameter or function definition "photon      " for cdj. Please enter a defined name.

 **error** arith eval -- no operand address

  **error**  Undefined parameter or function definition "photon      " for cdj. Please enter a defined name.

 **error** arith eval -- no operand address

  **error**  Undefined parameter or function definition "photon      " for cdj. Please enter a defined name.

 **error** arith eval -- no operand address

  **error**  Undefined parameter or function definition "photon      " for cdj. Please enter a defined name.

 **error** arith eval -- no operand address

  **error**  Undefined parameter or function definition "photon      " for cdj. Please enter a defined name.

 **error** arith eval -- no operand address

  **error**  Undefined parameter or function definition "photon      " for cdj. Please enter a defined name.

 **error** arith eval -- no operand address

  **error**  Undefined parameter or function definition "photon      " for cdj. Please enter a defined name.

 **error** arith eval -- no operand address

  **error**  Undefined parameter or function definition "photon      " for cdj. Please enter a defined name.

 **error** arith eval -- no operand address

  **error**  Undefined parameter or function definition "photon      " for cdj. Please enter a defined name.

 **error** arith eval -- no operand address

  **error**  Undefined parameter or function definition "photon      " for cdj. Please enter a defined name.

 **error** arith eval -- no operand address

  **error**  Undefined parameter or function definition "photon      " for cdj. Please enter a defined name.

 **error** arith eval -- no operand address

  **error**  Undefined parameter or function definition "photon      " for cdj. Please enter a defined name.

 **error** arith eval -- no operand address

  **error**  Undefined parameter or function definition "photon      " for cdj. Please enter a defined name.

 **error** arith eval -- no operand address

  **error**  Undefined parameter or function definition "photon      " for cdj. Please enter a defined name.

 **error** arith eval -- no operand address

  **error**  Undefined parameter or function definition "photon      " for cdj. Please enter a defined name.

 **error** arith eval -- no operand address

  **error**  Undefined parameter or function definition "photon      " for cdj. Please enter a defined name.

 **error** arith eval -- no operand address

  **error**  Undefined parameter or function definition "photon      " for cdj. Please enter a defined name.

 **error** arith eval -- no operand address

  **error**  Undefined parameter or function definition "photon      " for cdj. Please enter a defined name.

 **error** arith eval -- no operand address

  **error**  Undefined parameter or function definition "photon      " for cdj. Please enter a defined name.

 **error** arith eval -- no operand address

  **error**  Undefined parameter or function definition "photon      " for cdj. Please enter a defined name.

 **error** arith eval -- no operand address

  **error**  Undefined parameter or function definition "photon      " for cdj. Please enter a defined name.

 **error** arith eval -- no operand address

  **error**  Undefined parameter or function definition "photon      " for cdj. Please enter a defined name.
