 ****** HSPICE -- H-2013.03 64-BIT (Mar  7 2013) win64 ******                   
  Copyright (C) 2013 Synopsys, Inc. All Rights Reserved.                        
  Unpublished-rights reserved under US copyright laws.
  This program is protected by law and is subject to the
  terms and conditions of the license agreement from Synopsys.
  Use of this program is your acceptance to be bound by the
  license agreement. HSPICE is the trademark of Synopsys, Inc.
  Input File: sramusing3transistor.sp                                           
  Command line options: -i sramusing3transistor.sp -o sramusing3transistor.lis
  lic:  
  lic: FLEXlm: v10.9.8 
  lic: USER:   Dell                 HOSTNAME: DESKTOP-O3DHVG1 
  lic: HOSTID: "a0d37a293ca8 28f10e041fd4 a0d37a293ca4 a0d37a293ca5" PID:      1
 0860 
  lic: Using FLEXlm license file: 
  lic: C:\synopsys\Hspice_H-2013.03\lic.dat\lic.lic 
  lic: Checkout 1 hspice 
  lic: License/Maintenance for hspice will expire on 31-dec-2019/2019.12 
  lic: NODE LOCKED license on hostid "a0d37a293ca8 28f10e041fd4 a0d37a293ca4 a0d
 37a293ca5" 
  lic:   
 Init: read install configuration file: C:\synopsys\Hspice_H-2013.03\meta.cfg
 scientific notation:
 a=10**-18  f=10**-15  p=10**-12  n=10**-9  u=10**-6
 m=10**-3   k=10**3    x=10**6    g=10**9 
1****** HSPICE -- H-2013.03 64-BIT (Mar  7 2013) win64 ******                   
 ******  
 'inverter'

  ******  circuit name directory
 circuit number to circuit name directory
   number circuitname                     definition         multiplier
        0 main circuit


 circuit parameter definitions
  parameter          =  value 

     0:temp                                                    = 2.700e+01      
     0:m_cnt                                                   = 1.000e+00      
     0:wg                                                      = 4.000e-09      
     0:cb                                                      = 4.000e-11      
     0:lg                                                      = 3.200e-08      
     0:lgef                                                    = 1.000e-07      
     0:vfn                                                     = 0.000e+00      
     0:vfp                                                     = 0.000e+00      
     0:m                                                       = 0.000e+00      
     0:n                                                       = 1.900e+01      
     0:hox                                                     = 4.000e-09      
     1:tox                                                     = 4.000e-09      
     1:csub                                                    = 4.000e-11      
     1:pitch                                                   = 2.000e-08      
     1:n1                                                      = 0.000e+00      
     1:n2                                                      = 9.000e+00      
     1:vfbp                                                    = 0.000e+00      
     1:kgate                                                   = 1.600e+01      
     1:dout                                                    = 0.000e+00      
     1:sout                                                    = 0.000e+00      
     1:tubes                                                   = 8.000e+00      
     1:lg                                                      = 3.200e-08      
     1:lch                                                     = 3.200e-08      
     1:lgeff                                                   = 1.000e-07      
     1:lss                                                     = 3.200e-08      
     1:ldd                                                     = 3.200e-08      
     2:tox                                                     = 4.000e-09      
     2:csub                                                    = 4.000e-11      
     2:vfbn                                                    = 0.000e+00      
     2:pitch                                                   = 2.000e-08      
     2:n1                                                      = 0.000e+00      
     2:n2                                                      = 9.000e+00      
     2:kgate                                                   = 1.600e+01      
     2:dout                                                    = 0.000e+00      
     2:sout                                                    = 0.000e+00      
     2:tubes                                                   = 2.000e+01      
     2:lg                                                      = 3.200e-08      
     2:lch                                                     = 3.200e-08      
     2:lgeff                                                   = 1.000e-07      
     2:lss                                                     = 3.200e-08      
     2:ldd                                                     = 3.200e-08      
     3:tox                                                     = 4.000e-09      
     3:csub                                                    = 4.000e-11      
     3:vfbn                                                    = 0.000e+00      
     3:pitch                                                   = 2.000e-08      
     3:n1                                                      = 0.000e+00      
     3:n2                                                      = 1.100e+01      
     3:kgate                                                   = 1.600e+01      
     3:dout                                                    = 0.000e+00      
     3:sout                                                    = 0.000e+00      
     3:tubes                                                   = 2.000e+00      
     3:lg                                                      = 6.400e-08      
     3:lch                                                     = 6.400e-08      
     3:lgeff                                                   = 1.000e-07      
     3:lss                                                     = 3.200e-08      
     3:ldd                                                     = 3.200e-08      
     6:tox                                                     = 4.000e-09      
     6:csub                                                    = 4.000e-11      
     6:vfbn                                                    = 0.000e+00      
     6:pitch                                                   = 2.000e-08      
     6:n1                                                      = 0.000e+00      
     6:n2                                                      = 1.100e+01      
     6:kgate                                                   = 1.600e+01      
     6:dout                                                    = 0.000e+00      
     6:sout                                                    = 0.000e+00      
     6:tubes                                                   = 2.000e+00      
     6:lg                                                      = 6.400e-08      
     6:lch                                                     = 6.400e-08      
     6:lgeff                                                   = 1.000e-07      
     6:lss                                                     = 3.200e-08      
     6:ldd                                                     = 3.200e-08      
     7:tox                                                     = 4.000e-09      
     7:csub                                                    = 4.000e-11      
     7:pitch                                                   = 2.000e-08      
     7:n1                                                      = 0.000e+00      
     7:n2                                                      = 1.900e+01      
     7:vfbp                                                    = 0.000e+00      
     7:kgate                                                   = 1.600e+01      
     7:dout                                                    = 0.000e+00      
     7:sout                                                    = 0.000e+00      
     7:tubes                                                   = 1.000e+00      
     7:lch                                                     = 3.200e-08      
     7:lgeff                                                   = 1.000e-07      
     7:lss                                                     = 3.200e-08      
     7:ldd                                                     = 3.200e-08      
     8:tox                                                     = 4.000e-09      
     8:csub                                                    = 4.000e-11      
     8:vfbn                                                    = 0.000e+00      
     8:pitch                                                   = 2.000e-08      
     8:n1                                                      = 0.000e+00      
     8:n2                                                      = 1.900e+01      
     8:kgate                                                   = 1.600e+01      
     8:dout                                                    = 0.000e+00      
     8:sout                                                    = 0.000e+00      
     8:tubes                                                   = 1.000e+00      
     8:lch                                                     = 3.200e-08      
     8:lgeff                                                   = 1.000e-07      
     8:lss                                                     = 3.200e-08      
     8:ldd                                                     = 3.200e-08      
     9:tox                                                     = 4.000e-09      
     9:csub                                                    = 4.000e-11      
     9:pitch                                                   = 2.000e-08      
     9:n1                                                      = 0.000e+00      
     9:n2                                                      = 1.000e+01      
     9:vfbp                                                    = 0.000e+00      
     9:kgate                                                   = 1.600e+01      
     9:dout                                                    = 0.000e+00      
     9:sout                                                    = 0.000e+00      
     9:tubes                                                   = 1.000e+00      
     9:lch                                                     = 3.200e-08      
     9:lgeff                                                   = 1.000e-07      
     9:lss                                                     = 3.200e-08      
     9:ldd                                                     = 3.200e-08      
    10:tox                                                     = 4.000e-09      
    10:csub                                                    = 4.000e-11      
    10:vfbn                                                    = 0.000e+00      
    10:pitch                                                   = 2.000e-08      
    10:n1                                                      = 0.000e+00      
    10:n2                                                      = 1.000e+01      
    10:kgate                                                   = 1.600e+01      
    10:dout                                                    = 0.000e+00      
    10:sout                                                    = 0.000e+00      
    10:tubes                                                   = 1.000e+00      
    10:lch                                                     = 3.200e-08      
    10:lgeff                                                   = 1.000e-07      
    10:lss                                                     = 3.200e-08      
    10:ldd                                                     = 3.200e-08      




 constants  - tnom         kt           vt           gapsi        ni
            2.9815e+02   4.1163e-21   2.5692e-02   1.1156e+00   1.2565e+16 
  **info** (sramusing3transistor.sp:113) DC voltage reset to initial transient source value              in source        0:vrwl                new dc=  0.0000D+00

 **warning**  associated with encrypted block(s) were suppressed due to encrypted content

1****** HSPICE -- H-2013.03 64-BIT (Mar  7 2013) win64 ******                   
 ******  
 'inverter'

  ******  circuit element summary tnom=  25.000 temp=  25.000 *****


 **** independent sources

     name         node1        node2      dc volt    ac mag    ac phase    type
  vdd  vdd               0                  9.000e-01  0.000e+00  0.000e+00 dc   
  vddl  vddl              0                  4.500e-01  0.000e+00  0.000e+00 dc   
  vrwl  rwl               0                  0.000e+00  0.000e+00  0.000e+00 pwl  
                time        value

                 0.000e+00    0.000e+00
                 1.250e-08    0.000e+00
                 1.260e-08    9.000e-01
                 1.500e-08    9.000e-01
                 1.510e-08    0.000e+00
                 2.250e-08    0.000e+00
                 2.260e-08    9.000e-01
                 2.500e-08    9.000e-01
                 2.510e-08    0.000e+00
                 3.250e-08    0.000e+00
                 3.260e-08    9.000e-01
                 3.500e-08    9.000e-01


  vrwlb  rwlb              0                  9.000e-01  0.000e+00  0.000e+00 pwl  
                time        value

                 0.000e+00    9.000e-01
                 1.250e-08    9.000e-01
                 1.260e-08    0.000e+00
                 1.500e-08    0.000e+00
                 1.510e-08    9.000e-01
                 2.250e-08    9.000e-01
                 2.260e-08    0.000e+00
                 2.500e-08    0.000e+00
                 2.510e-08    9.000e-01
                 3.250e-08    9.000e-01
                 3.260e-08    0.000e+00
                 3.500e-08    0.000e+00


  vwbl  wbl               0                  0.000e+00  0.000e+00  0.000e+00 pwl  
                time        value

                 0.000e+00    0.000e+00
                 5.000e-09    0.000e+00
                 5.100e-09    4.500e-01
                 1.000e-08    4.500e-01
                 1.010e-08    0.000e+00
                 1.500e-08    0.000e+00
                 1.510e-08    9.000e-01
                 2.000e-08    9.000e-01
                 2.010e-08    0.000e+00
                 3.000e-08    0.000e+00
                 4.000e-08    0.000e+00


  vwwl  wwl               0                  0.000e+00  0.000e+00  0.000e+00 pwl  
                time        value

                 0.000e+00    0.000e+00
                 7.500e-09    0.000e+00
                 7.600e-09    9.000e-01
                 1.000e-08    9.000e-01
                 1.010e-08    0.000e+00
                 1.750e-08    0.000e+00
                 1.760e-08    9.000e-01
                 2.000e-08    9.000e-01
                 2.010e-08    0.000e+00
                 2.750e-08    0.000e+00
                 2.760e-08    9.000e-01
                 3.000e-08    9.000e-01
                 3.010e-08    0.000e+00
                 4.000e-08    0.000e+00


  vwwlb  wwlb              0                  9.000e-01  0.000e+00  0.000e+00 pwl  
                time        value

                 0.000e+00    9.000e-01
                 7.500e-09    9.000e-01
                 7.600e-09    0.000e+00
                 1.000e-08    0.000e+00
                 1.010e-08    9.000e-01
                 1.750e-08    9.000e-01
                 1.760e-08    0.000e+00
                 2.000e-08    0.000e+00
                 2.010e-08    9.000e-01
                 2.750e-08    9.000e-01
                 2.760e-08    0.000e+00
                 3.000e-08    0.000e+00
                 3.010e-08    9.000e-01
                 4.000e-08    9.000e-01




 **** subcircuit calls
    name        subcircuit         external nodes


         0:xcnt1    pcnfet          0:vdd         0:q           0:qb      
                               0:qb      


         0:xcnt2    ncnfet          0:qb          0:q           0:0       
                               0:0       


         0:xcnt3    ncnfet          0:qb          0:vdd         0:vddl    
                               0:vddl    


         0:xcnt4    pcnfet          0:vdd         0:qb          0:q       
                               0:q       


         0:xcnt5    ncnfet          0:q           0:qb          0:0       
                               0:0       


         0:xcnt6    ncnfet          0:q           0:vdd         0:vddl    
                               0:vddl    


         0:xcnt22   pcnfet          0:q           0:wwlb        0:wbl     
                               0:wbl     


         0:xcnt11   ncnfet          0:wbl         0:wwl         0:q       
                               0:q       


         0:xcnt16   pcnfet          0:vdd         0:qb          0:n5      
                               0:n5      


         0:xcnt15   ncnfet          0:n5          0:qb          0:0       
                               0:0       


         0:xcnt18   pcnfet          0:rbl         0:rwlb        0:n5      
                               0:n5      


         0:xcnt17   ncnfet          0:n5          0:rwl         0:rbl     
                               0:rbl     


  
1****** HSPICE -- H-2013.03 64-BIT (Mar  7 2013) win64 ******                   
 ******  
 'inverter'

  ******  element node table
                                                                                      
 0                vdd              vddl             vrwl             vrwlb            
                  vwbl             vwwl             vwwlb                             
 rwl              vrwl                                                                
 rwlb             vrwlb                                                               
 vdd              vdd                                                                 
 vddl             vddl                                                                
 wbl              vwbl                                                                
 wwl              vwwl                                                                
 wwlb             vwwlb                                                               
  **warning** PIVOT option setting is simplified, pivot = 13 is obsolete,
              automatically switch to pivot = 1.
 *****************************************************************
 ******  option summary
 ******
 runlvl  = 3         bypass  = 2         
  Opening plot unit= 79
 file=sramusing3transistor.pa0

1****** HSPICE -- H-2013.03 64-BIT (Mar  7 2013) win64 ******                   
 ******  
 'inverter'

  ******  operating point information tnom=  25.000 temp=  25.000 *****
 ***** operating point status is voltage   simulation time is   0.000e+00
     node    =voltage       node    =voltage       node    =voltage

 + 0:n5      = 5.505e-03  0:q       = 4.460e-01  0:qb      = 4.463e-01
 + 0:rbl     = 5.437e-03  0:rwl     = 0.000e+00  0:rwlb    = 9.000e-01
 + 0:vdd     = 9.000e-01  0:vddl    = 4.500e-01  0:wbl     = 0.000e+00
 + 0:wwl     = 0.000e+00  0:wwlb    = 9.000e-01

 ******  
 'inverter'

  ******  transient analysis tnom=  25.000 temp=  25.000 *****
x

        time    voltage      voltage      voltage    
                     q           qb           rbl    
  0.0000e+00    4.460e-01    4.463e-01    5.437e-03  
  1.0000e-10    4.460e-01    4.463e-01    5.437e-03  
  2.0000e-10    4.460e-01    4.463e-01    5.437e-03  
  3.0000e-10    4.460e-01    4.463e-01    5.437e-03  
  4.0000e-10    4.460e-01    4.463e-01    5.437e-03  
  5.0000e-10    4.460e-01    4.463e-01    5.437e-03  
  6.0000e-10    4.460e-01    4.463e-01    5.437e-03  
  7.0000e-10    4.460e-01    4.463e-01    5.437e-03  
  8.0000e-10    4.460e-01    4.463e-01    5.437e-03  
  9.0000e-10    4.460e-01    4.463e-01    5.437e-03  
  1.0000e-09    4.460e-01    4.463e-01    5.437e-03  
  1.1000e-09    4.460e-01    4.463e-01    5.437e-03  
  1.2000e-09    4.460e-01    4.463e-01    5.437e-03  
  1.3000e-09    4.460e-01    4.463e-01    5.437e-03  
  1.4000e-09    4.460e-01    4.463e-01    5.437e-03  
  1.5000e-09    4.460e-01    4.463e-01    5.437e-03  
  1.6000e-09    4.460e-01    4.463e-01    5.437e-03  
  1.7000e-09    4.460e-01    4.463e-01    5.437e-03  
  1.8000e-09    4.460e-01    4.463e-01    5.437e-03  
  1.9000e-09    4.460e-01    4.463e-01    5.437e-03  
  2.0000e-09    4.460e-01    4.463e-01    5.437e-03  
  2.1000e-09    4.460e-01    4.463e-01    5.437e-03  
  2.2000e-09    4.460e-01    4.463e-01    5.437e-03  
  2.3000e-09    4.460e-01    4.463e-01    5.437e-03  
  2.4000e-09    4.460e-01    4.463e-01    5.437e-03  
  2.5000e-09    4.460e-01    4.463e-01    5.437e-03  
  2.6000e-09    4.460e-01    4.463e-01    5.437e-03  
  2.7000e-09    4.460e-01    4.463e-01    5.437e-03  
  2.8000e-09    4.460e-01    4.463e-01    5.437e-03  
  2.9000e-09    4.460e-01    4.463e-01    5.437e-03  
  3.0000e-09    4.460e-01    4.463e-01    5.437e-03  
  3.1000e-09    4.460e-01    4.463e-01    5.437e-03  
  3.2000e-09    4.460e-01    4.463e-01    5.437e-03  
  3.3000e-09    4.460e-01    4.463e-01    5.437e-03  
  3.4000e-09    4.460e-01    4.463e-01    5.437e-03  
  3.5000e-09    4.460e-01    4.463e-01    5.437e-03  
  3.6000e-09    4.460e-01    4.463e-01    5.437e-03  
  3.7000e-09    4.460e-01    4.463e-01    5.437e-03  
  3.8000e-09    4.460e-01    4.463e-01    5.437e-03  
  3.9000e-09    4.460e-01    4.463e-01    5.437e-03  
  4.0000e-09    4.460e-01    4.463e-01    5.437e-03  
  4.1000e-09    4.460e-01    4.463e-01    5.437e-03  
  4.2000e-09    4.460e-01    4.463e-01    5.437e-03  
  4.3000e-09    4.460e-01    4.463e-01    5.437e-03  
  4.4000e-09    4.460e-01    4.463e-01    5.437e-03  
  4.5000e-09    4.460e-01    4.463e-01    5.437e-03  
  4.6000e-09    4.460e-01    4.463e-01    5.437e-03  
  4.7000e-09    4.460e-01    4.463e-01    5.437e-03  
  4.8000e-09    4.460e-01    4.463e-01    5.437e-03  
  4.9000e-09    4.460e-01    4.463e-01    5.437e-03  
  5.0000e-09    4.460e-01    4.463e-01    5.437e-03  
  5.1000e-09    4.537e-01    4.461e-01    5.377e-03  
  5.2000e-09    4.481e-01    4.454e-01    5.452e-03  
  5.3000e-09    4.466e-01    4.458e-01    5.540e-03  
  5.4000e-09    4.463e-01    4.462e-01    5.536e-03  
  5.5000e-09    4.462e-01    4.463e-01    5.514e-03  
  5.6000e-09    4.462e-01    4.463e-01    5.478e-03  
  5.7000e-09    4.462e-01    4.462e-01    5.442e-03  
  5.8000e-09    4.462e-01    4.462e-01    5.421e-03  
  5.9000e-09    4.462e-01    4.462e-01    5.429e-03  
  6.0000e-09    4.462e-01    4.462e-01    5.438e-03  
  6.1000e-09    4.462e-01    4.462e-01    5.446e-03  
  6.2000e-09    4.462e-01    4.462e-01    5.454e-03  
  6.3000e-09    4.463e-01    4.462e-01    5.463e-03  
  6.4000e-09    4.463e-01    4.462e-01    5.464e-03  
  6.5000e-09    4.463e-01    4.462e-01    5.461e-03  
  6.6000e-09    4.463e-01    4.462e-01    5.458e-03  
  6.7000e-09    4.462e-01    4.462e-01    5.455e-03  
  6.8000e-09    4.462e-01    4.462e-01    5.452e-03  
  6.9000e-09    4.462e-01    4.462e-01    5.449e-03  
  7.0000e-09    4.462e-01    4.462e-01    5.445e-03  
  7.1000e-09    4.462e-01    4.462e-01    5.442e-03  
  7.2000e-09    4.462e-01    4.462e-01    5.439e-03  
  7.3000e-09    4.462e-01    4.462e-01    5.436e-03  
  7.4000e-09    4.462e-01    4.462e-01    5.433e-03  
  7.5000e-09    4.462e-01    4.462e-01    5.430e-03  
  7.6000e-09    4.510e-01    4.454e-01    5.339e-03  
  7.7000e-09    4.499e-01    4.456e-01    5.501e-03  
  7.8000e-09    4.499e-01    4.457e-01    5.545e-03  
  7.9000e-09    4.499e-01    4.457e-01    5.546e-03  
  8.0000e-09    4.499e-01    4.457e-01    5.546e-03  
  8.1000e-09    4.499e-01    4.457e-01    5.547e-03  
  8.2000e-09    4.499e-01    4.457e-01    5.548e-03  
  8.3000e-09    4.499e-01    4.457e-01    5.549e-03  
  8.4000e-09    4.499e-01    4.457e-01    5.550e-03  
  8.5000e-09    4.499e-01    4.457e-01    5.551e-03  
  8.6000e-09    4.499e-01    4.457e-01    5.552e-03  
  8.7000e-09    4.499e-01    4.457e-01    5.552e-03  
  8.8000e-09    4.499e-01    4.457e-01    5.553e-03  
  8.9000e-09    4.499e-01    4.457e-01    5.554e-03  
  9.0000e-09    4.499e-01    4.457e-01    5.555e-03  
  9.1000e-09    4.499e-01    4.457e-01    5.556e-03  
  9.2000e-09    4.499e-01    4.457e-01    5.557e-03  
  9.3000e-09    4.499e-01    4.457e-01    5.558e-03  
  9.4000e-09    4.499e-01    4.457e-01    5.558e-03  
  9.5000e-09    4.499e-01    4.457e-01    5.559e-03  
  9.6000e-09    4.499e-01    4.457e-01    5.560e-03  
  9.7000e-09    4.499e-01    4.457e-01    5.560e-03  
  9.8000e-09    4.499e-01    4.457e-01    5.561e-03  
  9.9000e-09    4.499e-01    4.457e-01    5.562e-03  
  1.0000e-08    4.499e-01    4.457e-01    5.562e-03  
  1.0100e-08    4.282e-01    4.468e-01    5.768e-03  
  1.0200e-08    4.426e-01    4.482e-01    5.460e-03  
  1.0300e-08    4.454e-01    4.470e-01    5.224e-03  
  1.0400e-08    4.459e-01    4.463e-01    5.256e-03  
  1.0500e-08    4.459e-01    4.463e-01    5.362e-03  
  1.0600e-08    4.460e-01    4.463e-01    5.454e-03  
  1.0700e-08    4.460e-01    4.463e-01    5.455e-03  
  1.0800e-08    4.460e-01    4.463e-01    5.455e-03  
  1.0900e-08    4.460e-01    4.463e-01    5.456e-03  
  1.1000e-08    4.460e-01    4.463e-01    5.456e-03  
  1.1100e-08    4.460e-01    4.463e-01    5.455e-03  
  1.1200e-08    4.460e-01    4.463e-01    5.454e-03  
  1.1300e-08    4.460e-01    4.463e-01    5.454e-03  
  1.1400e-08    4.460e-01    4.463e-01    5.453e-03  
  1.1500e-08    4.460e-01    4.463e-01    5.453e-03  
  1.1600e-08    4.460e-01    4.463e-01    5.452e-03  
  1.1700e-08    4.460e-01    4.463e-01    5.452e-03  
  1.1800e-08    4.460e-01    4.463e-01    5.451e-03  
  1.1900e-08    4.460e-01    4.463e-01    5.451e-03  
  1.2000e-08    4.460e-01    4.463e-01    5.451e-03  
  1.2100e-08    4.460e-01    4.463e-01    5.450e-03  
  1.2200e-08    4.460e-01    4.463e-01    5.450e-03  
  1.2300e-08    4.460e-01    4.463e-01    5.450e-03  
  1.2400e-08    4.460e-01    4.463e-01    5.450e-03  
  1.2500e-08    4.460e-01    4.463e-01    5.449e-03  
  1.2600e-08    4.460e-01    4.502e-01    2.953e-01  
  1.2700e-08    4.456e-01    4.470e-01    2.797e-01  
  1.2800e-08    4.458e-01    4.461e-01    2.653e-01  
  1.2900e-08    4.459e-01    4.461e-01    2.506e-01  
  1.3000e-08    4.460e-01    4.461e-01    2.358e-01  
  1.3100e-08    4.461e-01    4.461e-01    2.207e-01  
  1.3200e-08    4.460e-01    4.461e-01    2.050e-01  
  1.3300e-08    4.460e-01    4.461e-01    1.892e-01  
  1.3400e-08    4.460e-01    4.461e-01    1.734e-01  
  1.3500e-08    4.460e-01    4.461e-01    1.577e-01  
  1.3600e-08    4.460e-01    4.461e-01    1.443e-01  
  1.3700e-08    4.460e-01    4.461e-01    1.312e-01  
  1.3800e-08    4.460e-01    4.461e-01    1.181e-01  
  1.3900e-08    4.460e-01    4.461e-01    1.050e-01  
  1.4000e-08    4.460e-01    4.461e-01    9.190e-02  
  1.4100e-08    4.460e-01    4.461e-01    7.879e-02  
  1.4200e-08    4.460e-01    4.461e-01    6.569e-02  
  1.4300e-08    4.460e-01    4.461e-01    5.258e-02  
  1.4400e-08    4.460e-01    4.461e-01    3.947e-02  
  1.4500e-08    4.460e-01    4.461e-01    3.142e-02  
  1.4600e-08    4.460e-01    4.462e-01    2.634e-02  
  1.4700e-08    4.460e-01    4.462e-01    2.126e-02  
  1.4800e-08    4.460e-01    4.462e-01    1.618e-02  
  1.4900e-08    4.460e-01    4.462e-01    1.110e-02  
  1.5000e-08    4.460e-01    4.463e-01    6.020e-03  
  1.5100e-08    4.612e-01    4.460e-01   -1.369e-01  
  1.5200e-08    4.495e-01    4.450e-01   -8.242e-02  
  1.5300e-08    4.470e-01    4.458e-01   -6.864e-02  
  1.5400e-08    4.464e-01    4.461e-01   -6.154e-02  
  1.5500e-08    4.463e-01    4.462e-01   -5.653e-02  
  1.5600e-08    4.463e-01    4.462e-01   -5.278e-02  
  1.5700e-08    4.462e-01    4.462e-01   -4.920e-02  
  1.5800e-08    4.463e-01    4.462e-01   -4.668e-02  
  1.5900e-08    4.463e-01    4.462e-01   -4.415e-02  
  1.6000e-08    4.463e-01    4.462e-01   -4.163e-02  
  1.6100e-08    4.463e-01    4.462e-01   -3.937e-02  
  1.6200e-08    4.463e-01    4.462e-01   -3.779e-02  
  1.6300e-08    4.463e-01    4.462e-01   -3.621e-02  
  1.6400e-08    4.463e-01    4.462e-01   -3.463e-02  
  1.6500e-08    4.463e-01    4.462e-01   -3.305e-02  
  1.6600e-08    4.463e-01    4.462e-01   -3.147e-02  
  1.6700e-08    4.463e-01    4.462e-01   -2.989e-02  
  1.6800e-08    4.463e-01    4.462e-01   -2.841e-02  
  1.6900e-08    4.463e-01    4.462e-01   -2.744e-02  
  1.7000e-08    4.463e-01    4.462e-01   -2.648e-02  
  1.7100e-08    4.463e-01    4.462e-01   -2.551e-02  
  1.7200e-08    4.463e-01    4.462e-01   -2.454e-02  
  1.7300e-08    4.463e-01    4.462e-01   -2.358e-02  
  1.7400e-08    4.463e-01    4.462e-01   -2.261e-02  
  1.7500e-08    4.463e-01    4.462e-01   -2.165e-02  
  1.7600e-08    8.993e-01    4.910e-02    5.038e-01  
  1.7700e-08    8.993e-01    4.910e-02    5.044e-01  
  1.7800e-08    8.993e-01    4.910e-02    5.050e-01  
  1.7900e-08    8.993e-01    4.910e-02    5.056e-01  
  1.8000e-08    8.993e-01    4.910e-02    5.062e-01  
  1.8100e-08    8.993e-01    4.910e-02    5.068e-01  
  1.8200e-08    8.993e-01    4.910e-02    5.074e-01  
  1.8300e-08    8.993e-01    4.910e-02    5.080e-01  
  1.8400e-08    8.993e-01    4.910e-02    5.086e-01  
  1.8500e-08    8.993e-01    4.910e-02    5.092e-01  
  1.8600e-08    8.993e-01    4.910e-02    5.098e-01  
  1.8700e-08    8.993e-01    4.910e-02    5.104e-01  
  1.8800e-08    8.993e-01    4.910e-02    5.109e-01  
  1.8900e-08    8.993e-01    4.910e-02    5.115e-01  
  1.9000e-08    8.993e-01    4.910e-02    5.121e-01  
  1.9100e-08    8.993e-01    4.910e-02    5.127e-01  
  1.9200e-08    8.993e-01    4.910e-02    5.133e-01  
  1.9300e-08    8.993e-01    4.910e-02    5.139e-01  
  1.9400e-08    8.993e-01    4.910e-02    5.145e-01  
  1.9500e-08    8.993e-01    4.910e-02    5.151e-01  
  1.9600e-08    8.993e-01    4.910e-02    5.157e-01  
  1.9700e-08    8.993e-01    4.910e-02    5.163e-01  
  1.9800e-08    8.993e-01    4.910e-02    5.169e-01  
  1.9900e-08    8.993e-01    4.910e-02    5.175e-01  
  2.0000e-08    8.993e-01    4.910e-02    5.181e-01  
  2.0100e-08    9.001e-01    4.844e-02    5.187e-01  
  2.0200e-08    8.989e-01    4.911e-02    5.193e-01  
  2.0300e-08    8.989e-01    4.912e-02    5.199e-01  
  2.0400e-08    8.989e-01    4.912e-02    5.205e-01  
  2.0500e-08    8.989e-01    4.911e-02    5.211e-01  
  2.0600e-08    8.989e-01    4.911e-02    5.216e-01  
  2.0700e-08    8.989e-01    4.911e-02    5.222e-01  
  2.0800e-08    8.989e-01    4.911e-02    5.228e-01  
  2.0900e-08    8.989e-01    4.911e-02    5.234e-01  
  2.1000e-08    8.989e-01    4.911e-02    5.240e-01  
  2.1100e-08    8.989e-01    4.911e-02    5.246e-01  
  2.1200e-08    8.989e-01    4.911e-02    5.252e-01  
  2.1300e-08    8.989e-01    4.912e-02    5.258e-01  
  2.1400e-08    8.989e-01    4.912e-02    5.264e-01  
  2.1500e-08    8.989e-01    4.912e-02    5.270e-01  
  2.1600e-08    8.989e-01    4.912e-02    5.276e-01  
  2.1700e-08    8.989e-01    4.912e-02    5.282e-01  
  2.1800e-08    8.989e-01    4.912e-02    5.288e-01  
  2.1900e-08    8.989e-01    4.912e-02    5.294e-01  
  2.2000e-08    8.989e-01    4.912e-02    5.299e-01  
  2.2100e-08    8.989e-01    4.911e-02    5.305e-01  
  2.2200e-08    8.989e-01    4.911e-02    5.311e-01  
  2.2300e-08    8.989e-01    4.911e-02    5.317e-01  
  2.2400e-08    8.989e-01    4.911e-02    5.323e-01  
  2.2500e-08    8.989e-01    4.911e-02    5.329e-01  
  2.2600e-08    8.989e-01    4.910e-02    8.948e-01  
  2.2700e-08    8.989e-01    4.911e-02    9.000e-01  
  2.2800e-08    8.989e-01    4.911e-02    9.000e-01  
  2.2900e-08    8.989e-01    4.911e-02    9.000e-01  
  2.3000e-08    8.989e-01    4.911e-02    9.001e-01  
  2.3100e-08    8.989e-01    4.911e-02    9.000e-01  
  2.3200e-08    8.989e-01    4.911e-02    9.000e-01  
  2.3300e-08    8.989e-01    4.911e-02    8.999e-01  
  2.3400e-08    8.989e-01    4.911e-02    8.999e-01  
  2.3500e-08    8.989e-01    4.911e-02    8.999e-01  
  2.3600e-08    8.989e-01    4.911e-02    8.999e-01  
  2.3700e-08    8.989e-01    4.911e-02    9.000e-01  
  2.3800e-08    8.989e-01    4.911e-02    9.000e-01  
  2.3900e-08    8.989e-01    4.911e-02    9.000e-01  
  2.4000e-08    8.989e-01    4.911e-02    9.000e-01  
  2.4100e-08    8.989e-01    4.911e-02    9.000e-01  
  2.4200e-08    8.989e-01    4.911e-02    9.000e-01  
  2.4300e-08    8.989e-01    4.911e-02    9.001e-01  
  2.4400e-08    8.989e-01    4.911e-02    9.001e-01  
  2.4500e-08    8.989e-01    4.911e-02    9.001e-01  
  2.4600e-08    8.989e-01    4.911e-02    9.000e-01  
  2.4700e-08    8.989e-01    4.911e-02    9.000e-01  
  2.4800e-08    8.989e-01    4.911e-02    9.000e-01  
  2.4900e-08    8.989e-01    4.911e-02    8.999e-01  
  2.5000e-08    8.989e-01    4.911e-02    8.999e-01  
  2.5100e-08    8.989e-01    4.912e-02    8.443e-01  
  2.5200e-08    8.989e-01    4.911e-02    8.443e-01  
  2.5300e-08    8.989e-01    4.911e-02    8.447e-01  
  2.5400e-08    8.989e-01    4.911e-02    8.450e-01  
  2.5500e-08    8.989e-01    4.911e-02    8.454e-01  
  2.5600e-08    8.989e-01    4.911e-02    8.458e-01  
  2.5700e-08    8.989e-01    4.911e-02    8.462e-01  
  2.5800e-08    8.989e-01    4.911e-02    8.465e-01  
  2.5900e-08    8.989e-01    4.911e-02    8.469e-01  
  2.6000e-08    8.989e-01    4.911e-02    8.473e-01  
  2.6100e-08    8.989e-01    4.911e-02    8.477e-01  
  2.6200e-08    8.989e-01    4.911e-02    8.480e-01  
  2.6300e-08    8.989e-01    4.911e-02    8.484e-01  
  2.6400e-08    8.989e-01    4.911e-02    8.488e-01  
  2.6500e-08    8.989e-01    4.911e-02    8.491e-01  
  2.6600e-08    8.989e-01    4.911e-02    8.495e-01  
  2.6700e-08    8.989e-01    4.911e-02    8.499e-01  
  2.6800e-08    8.989e-01    4.911e-02    8.502e-01  
  2.6900e-08    8.989e-01    4.911e-02    8.506e-01  
  2.7000e-08    8.989e-01    4.911e-02    8.510e-01  
  2.7100e-08    8.989e-01    4.911e-02    8.513e-01  
  2.7200e-08    8.989e-01    4.911e-02    8.517e-01  
  2.7300e-08    8.989e-01    4.911e-02    8.520e-01  
  2.7400e-08    8.989e-01    4.911e-02    8.524e-01  
  2.7500e-08    8.989e-01    4.911e-02    8.527e-01  
  2.7600e-08    2.380e-01    2.144e-01    8.552e-01  
  2.7700e-08    4.157e-02    8.989e-01    3.242e-01  
  2.7800e-08    4.157e-02    8.989e-01    3.231e-01  
  2.7900e-08    4.159e-02    8.990e-01    3.225e-01  
  2.8000e-08    4.158e-02    8.989e-01    3.211e-01  
  2.8100e-08    4.162e-02    8.990e-01    3.211e-01  
  2.8200e-08    4.159e-02    8.990e-01    3.193e-01  
  2.8300e-08    4.156e-02    8.989e-01    3.176e-01  
  2.8400e-08    4.158e-02    8.989e-01    3.170e-01  
  2.8500e-08    4.160e-02    8.990e-01    3.165e-01  
  2.8600e-08    4.161e-02    8.990e-01    3.160e-01  
  2.8700e-08    4.161e-02    8.990e-01    3.149e-01  
  2.8800e-08    4.159e-02    8.990e-01    3.136e-01  
  2.8900e-08    4.158e-02    8.989e-01    3.123e-01  
  2.9000e-08    4.157e-02    8.989e-01    3.111e-01  
  2.9100e-08    4.157e-02    8.989e-01    3.100e-01  
  2.9200e-08    4.157e-02    8.989e-01    3.094e-01  
  2.9300e-08    4.158e-02    8.989e-01    3.088e-01  
  2.9400e-08    4.159e-02    8.990e-01    3.082e-01  
  2.9500e-08    4.160e-02    8.990e-01    3.076e-01  
  2.9600e-08    4.161e-02    8.990e-01    3.070e-01  
  2.9700e-08    4.162e-02    8.990e-01    3.064e-01  
  2.9800e-08    4.160e-02    8.990e-01    3.052e-01  
  2.9900e-08    4.159e-02    8.989e-01    3.038e-01  
  3.0000e-08    4.157e-02    8.989e-01    3.025e-01  
  3.0100e-08    4.917e-02    8.989e-01    3.025e-01  
  3.0200e-08    4.911e-02    8.989e-01    3.018e-01  
  3.0300e-08    4.911e-02    8.989e-01    3.010e-01  
  3.0400e-08    4.911e-02    8.989e-01    3.003e-01  
  3.0500e-08    4.911e-02    8.989e-01    2.996e-01  
  3.0600e-08    4.911e-02    8.989e-01    2.988e-01  
  3.0700e-08    4.911e-02    8.989e-01    2.981e-01  
  3.0800e-08    4.911e-02    8.989e-01    2.974e-01  
  3.0900e-08    4.911e-02    8.989e-01    2.967e-01  
  3.1000e-08    4.911e-02    8.989e-01    2.960e-01  
  3.1100e-08    4.911e-02    8.989e-01    2.954e-01  
  3.1200e-08    4.911e-02    8.989e-01    2.947e-01  
  3.1300e-08    4.911e-02    8.989e-01    2.941e-01  
  3.1400e-08    4.911e-02    8.989e-01    2.934e-01  
  3.1500e-08    4.911e-02    8.989e-01    2.928e-01  
  3.1600e-08    4.911e-02    8.989e-01    2.921e-01  
  3.1700e-08    4.911e-02    8.989e-01    2.915e-01  
  3.1800e-08    4.911e-02    8.989e-01    2.908e-01  
  3.1900e-08    4.911e-02    8.989e-01    2.902e-01  
  3.2000e-08    4.911e-02    8.989e-01    2.895e-01  
  3.2100e-08    4.911e-02    8.989e-01    2.889e-01  
  3.2200e-08    4.911e-02    8.989e-01    2.882e-01  
  3.2300e-08    4.911e-02    8.989e-01    2.876e-01  
  3.2400e-08    4.911e-02    8.989e-01    2.869e-01  
  3.2500e-08    4.911e-02    8.989e-01    2.863e-01  
  3.2600e-08    4.908e-02    8.989e-01    4.426e-03  
  3.2700e-08    4.911e-02    8.989e-01    6.017e-05  
  3.2800e-08    4.911e-02    8.989e-01    5.935e-05  
  3.2900e-08    4.911e-02    8.989e-01    5.927e-05  
  3.3000e-08    4.911e-02    8.989e-01    5.934e-05  
  3.3100e-08    4.911e-02    8.989e-01    5.940e-05  
  3.3200e-08    4.911e-02    8.989e-01    5.946e-05  
  3.3300e-08    4.911e-02    8.989e-01    5.947e-05  
  3.3400e-08    4.911e-02    8.989e-01    5.947e-05  
  3.3500e-08    4.911e-02    8.989e-01    5.947e-05  
  3.3600e-08    4.911e-02    8.989e-01    5.947e-05  
  3.3700e-08    4.911e-02    8.989e-01    5.947e-05  
  3.3800e-08    4.911e-02    8.989e-01    5.947e-05  
  3.3900e-08    4.911e-02    8.989e-01    5.947e-05  
  3.4000e-08    4.911e-02    8.989e-01    5.947e-05  
  3.4100e-08    4.911e-02    8.989e-01    5.947e-05  
  3.4200e-08    4.911e-02    8.989e-01    5.947e-05  
  3.4300e-08    4.911e-02    8.989e-01    5.946e-05  
  3.4400e-08    4.911e-02    8.989e-01    5.944e-05  
  3.4500e-08    4.911e-02    8.989e-01    5.941e-05  
  3.4600e-08    4.911e-02    8.989e-01    5.939e-05  
  3.4700e-08    4.911e-02    8.989e-01    5.937e-05  
  3.4800e-08    4.911e-02    8.989e-01    5.934e-05  
  3.4900e-08    4.911e-02    8.989e-01    5.932e-05  
  3.5000e-08    4.911e-02    8.989e-01    5.930e-05  
  3.5100e-08    4.911e-02    8.989e-01    5.931e-05  
  3.5200e-08    4.911e-02    8.989e-01    5.933e-05  
  3.5300e-08    4.911e-02    8.989e-01    5.934e-05  
  3.5400e-08    4.911e-02    8.989e-01    5.936e-05  
  3.5500e-08    4.911e-02    8.989e-01    5.937e-05  
  3.5600e-08    4.911e-02    8.989e-01    5.939e-05  
  3.5700e-08    4.911e-02    8.989e-01    5.940e-05  
  3.5800e-08    4.911e-02    8.989e-01    5.942e-05  
  3.5900e-08    4.911e-02    8.989e-01    5.944e-05  
  3.6000e-08    4.911e-02    8.989e-01    5.945e-05  
  3.6100e-08    4.911e-02    8.989e-01    5.945e-05  
  3.6200e-08    4.911e-02    8.989e-01    5.945e-05  
  3.6300e-08    4.911e-02    8.989e-01    5.945e-05  
  3.6400e-08    4.911e-02    8.989e-01    5.944e-05  
  3.6500e-08    4.911e-02    8.989e-01    5.944e-05  
  3.6600e-08    4.911e-02    8.989e-01    5.944e-05  
  3.6700e-08    4.911e-02    8.989e-01    5.944e-05  
  3.6800e-08    4.911e-02    8.989e-01    5.944e-05  
  3.6900e-08    4.911e-02    8.989e-01    5.943e-05  
  3.7000e-08    4.911e-02    8.989e-01    5.943e-05  
  3.7100e-08    4.911e-02    8.989e-01    5.943e-05  
  3.7200e-08    4.911e-02    8.989e-01    5.943e-05  
  3.7300e-08    4.911e-02    8.989e-01    5.943e-05  
  3.7400e-08    4.911e-02    8.989e-01    5.942e-05  
  3.7500e-08    4.911e-02    8.989e-01    5.942e-05  
  3.7600e-08    4.911e-02    8.989e-01    5.942e-05  
  3.7700e-08    4.911e-02    8.989e-01    5.942e-05  
  3.7800e-08    4.911e-02    8.989e-01    5.942e-05  
  3.7900e-08    4.911e-02    8.989e-01    5.941e-05  
  3.8000e-08    4.911e-02    8.989e-01    5.941e-05  
  3.8100e-08    4.911e-02    8.989e-01    5.941e-05  
  3.8200e-08    4.911e-02    8.989e-01    5.942e-05  
  3.8300e-08    4.911e-02    8.989e-01    5.942e-05  
  3.8400e-08    4.911e-02    8.989e-01    5.942e-05  
  3.8500e-08    4.911e-02    8.989e-01    5.942e-05  
  3.8600e-08    4.911e-02    8.989e-01    5.942e-05  
  3.8700e-08    4.911e-02    8.989e-01    5.943e-05  
  3.8800e-08    4.911e-02    8.989e-01    5.943e-05  
  3.8900e-08    4.911e-02    8.989e-01    5.943e-05  
  3.9000e-08    4.911e-02    8.989e-01    5.943e-05  
  3.9100e-08    4.911e-02    8.989e-01    5.943e-05  
  3.9200e-08    4.911e-02    8.989e-01    5.944e-05  
  3.9300e-08    4.911e-02    8.989e-01    5.944e-05  
  3.9400e-08    4.911e-02    8.989e-01    5.944e-05  
  3.9500e-08    4.911e-02    8.989e-01    5.944e-05  
  3.9600e-08    4.911e-02    8.989e-01    5.944e-05  
  3.9700e-08    4.911e-02    8.989e-01    5.945e-05  
  3.9800e-08    4.911e-02    8.989e-01    5.945e-05  
  3.9900e-08    4.911e-02    8.989e-01    5.945e-05  
  4.0000e-08    4.911e-02    8.989e-01    5.945e-05  
y
-----------------------------------------------

          ***** job concluded
1****** HSPICE -- H-2013.03 64-BIT (Mar  7 2013) win64 ******                   
 ******  
 'inverter'

  ******  job statistics summary tnom=  25.000 temp=  25.000 *****

  ******  HSPICE Threads Information  ******

  Command Line Threads Count :     1
  Available CPU Count        :     4
  Actual Threads Count       :     1


  ******  Circuit Statistics  ******
  # nodes       =     340 # elements   =     779
  # resistors   =     144 # capacitors =     348 # inductors   =       0
  # mutual_inds =       0 # vccs       =      96 # vcvs        =     160
  # cccs        =       0 # ccvs       =       0 # volt_srcs   =      31
  # curr_srcs   =       0 # diodes     =       0 # bjts        =       0
  # jfets       =       0 # mosfets    =       0 # U elements  =       0
  # T elements  =       0 # W elements =       0 # B elements  =       0
  # S elements  =       0 # P elements =       0 # va device   =       0
  # vector_srcs =       0 # N elements =       0


  ******  Runtime Statistics (seconds)  ******

  analysis           time    # points   tot. iter  conv.iter
  op point           0.32           1          17
  transient         10.87         401         796         210 rev=        13
  readin             0.04
  errchk             0.20
  setup              0.00
  output             0.00


           peak memory used         48.86 megabytes
           total cpu time           11.45 seconds
           total elapsed time       11.49 seconds
           job started at     22:14:50 01/28/2018
           job ended   at     22:15:01 01/28/2018


  lic: Release hspice token(s) 
 lic: total license checkout elapse time:        0.03(s)
