 ****** HSPICE -- H-2013.03 64-BIT (Mar  7 2013) win64 ******                   
  Copyright (C) 2013 Synopsys, Inc. All Rights Reserved.                        
  Unpublished-rights reserved under US copyright laws.
  This program is protected by law and is subject to the
  terms and conditions of the license agreement from Synopsys.
  Use of this program is your acceptance to be bound by the
  license agreement. HSPICE is the trademark of Synopsys, Inc.
  Input File: sram180nmread.sp                                                  
  Command line options: -i sram180nmread.sp -o sram180nmread.lis
  lic:  
  lic: FLEXlm: v10.9.8 
  lic: USER:   Dell                 HOSTNAME: DESKTOP-O3DHVG1 
  lic: HOSTID: "28f10e041fd4 a0d37a293ca4 a0d37a293ca5" PID:      13044 
  lic: Using FLEXlm license file: 
  lic: C:\synopsys\Hspice_H-2013.03\lic.dat\lic.lic 
  lic: Checkout 1 hspice 
  lic: License/Maintenance for hspice will expire on 31-dec-2019/2019.12 
  lic: NODE LOCKED license on hostid "28f10e041fd4 a0d37a293ca4 a0d37a293ca5" 
  lic:   
 Init: read install configuration file: C:\synopsys\Hspice_H-2013.03\meta.cfg
 scientific notation:
 a=10**-18  f=10**-15  p=10**-12  n=10**-9  u=10**-6
 m=10**-3   k=10**3    x=10**6    g=10**9 
1****** HSPICE -- H-2013.03 64-BIT (Mar  7 2013) win64 ******                   
 ******  
 'inverter'

  ******  circuit name directory
 circuit number to circuit name directory
   number circuitname                     definition         multiplier
        0 main circuit


 circuit parameter definitions
  parameter          =  value 

     0:temp                                                    = 2.700e+01      
     0:m_cnt                                                   = 1.000e+00      
     0:wg                                                      = 4.000e-09      
     0:cb                                                      = 4.000e-11      
     0:lg                                                      = 1.800e-07      
     0:lgef                                                    = 2.000e-07      
     0:vfn                                                     = 0.000e+00      
     0:vfp                                                     = 0.000e+00      
     0:m                                                       = 0.000e+00      
     0:n                                                       = 1.900e+01      
     0:hox                                                     = 4.000e-09      
     1:tox                                                     = 4.000e-09      
     1:csub                                                    = 4.000e-11      
     1:pitch                                                   = 2.000e-08      
     1:n1                                                      = 0.000e+00      
     1:n2                                                      = 1.900e+01      
     1:vfbp                                                    = 0.000e+00      
     1:kgate                                                   = 1.600e+01      
     1:dout                                                    = 0.000e+00      
     1:sout                                                    = 0.000e+00      
     1:tubes                                                   = 1.000e+00      
     1:lch                                                     = 1.800e-07      
     1:lgeff                                                   = 2.000e-07      
     1:lss                                                     = 3.200e-08      
     1:ldd                                                     = 3.200e-08      
     2:tox                                                     = 4.000e-09      
     2:csub                                                    = 4.000e-11      
     2:pitch                                                   = 2.000e-08      
     2:n1                                                      = 0.000e+00      
     2:n2                                                      = 1.000e+01      
     2:vfbp                                                    = 0.000e+00      
     2:kgate                                                   = 1.600e+01      
     2:dout                                                    = 0.000e+00      
     2:sout                                                    = 0.000e+00      
     2:tubes                                                   = 1.000e+00      
     2:lch                                                     = 1.800e-07      
     2:lgeff                                                   = 2.000e-07      
     2:lss                                                     = 3.200e-08      
     2:ldd                                                     = 3.200e-08      
     3:tox                                                     = 4.000e-09      
     3:csub                                                    = 4.000e-11      
     3:pitch                                                   = 2.000e-08      
     3:n1                                                      = 0.000e+00      
     3:n2                                                      = 1.300e+01      
     3:vfbp                                                    = 0.000e+00      
     3:kgate                                                   = 1.600e+01      
     3:dout                                                    = 0.000e+00      
     3:sout                                                    = 0.000e+00      
     3:tubes                                                   = 1.000e+00      
     3:lch                                                     = 1.800e-07      
     3:lgeff                                                   = 2.000e-07      
     3:lss                                                     = 3.200e-08      
     3:ldd                                                     = 3.200e-08      
     4:tox                                                     = 4.000e-09      
     4:csub                                                    = 4.000e-11      
     4:vfbn                                                    = 0.000e+00      
     4:pitch                                                   = 2.000e-08      
     4:n1                                                      = 0.000e+00      
     4:n2                                                      = 1.300e+01      
     4:kgate                                                   = 1.600e+01      
     4:dout                                                    = 0.000e+00      
     4:sout                                                    = 0.000e+00      
     4:tubes                                                   = 1.000e+00      
     4:lch                                                     = 1.800e-07      
     4:lgeff                                                   = 2.000e-07      
     4:lss                                                     = 3.200e-08      
     4:ldd                                                     = 3.200e-08      
     5:tox                                                     = 4.000e-09      
     5:csub                                                    = 4.000e-11      
     5:vfbn                                                    = 0.000e+00      
     5:pitch                                                   = 2.000e-08      
     5:n1                                                      = 0.000e+00      
     5:n2                                                      = 1.900e+01      
     5:kgate                                                   = 1.600e+01      
     5:dout                                                    = 0.000e+00      
     5:sout                                                    = 0.000e+00      
     5:tubes                                                   = 1.000e+00      
     5:lch                                                     = 1.800e-07      
     5:lgeff                                                   = 2.000e-07      
     5:lss                                                     = 3.200e-08      
     5:ldd                                                     = 3.200e-08      
     6:tox                                                     = 4.000e-09      
     6:csub                                                    = 4.000e-11      
     6:vfbn                                                    = 0.000e+00      
     6:pitch                                                   = 2.000e-08      
     6:n1                                                      = 0.000e+00      
     6:n2                                                      = 1.000e+01      
     6:kgate                                                   = 1.600e+01      
     6:dout                                                    = 0.000e+00      
     6:sout                                                    = 0.000e+00      
     6:tubes                                                   = 1.000e+00      
     6:lch                                                     = 1.800e-07      
     6:lgeff                                                   = 2.000e-07      
     6:lss                                                     = 3.200e-08      
     6:ldd                                                     = 3.200e-08      




 constants  - tnom         kt           vt           gapsi        ni
            2.9815e+02   4.1163e-21   2.5692e-02   1.1156e+00   1.2565e+16 
  **info** (sram180nmread.sp:130) DC voltage reset to initial transient source value              in source        0:vrwl                new dc=  0.0000D+00

 **warning**  associated with encrypted block(s) were suppressed due to encrypted content

1****** HSPICE -- H-2013.03 64-BIT (Mar  7 2013) win64 ******                   
 ******  
 'inverter'

  ******  circuit element summary tnom=  25.000 temp=  25.000 *****


 **** independent sources

     name         node1        node2      dc volt    ac mag    ac phase    type
  vdd  vdd               0                  9.000e-01  0.000e+00  0.000e+00 dc   
  vrwl  rwl               0                  0.000e+00  0.000e+00  0.000e+00 pwl  
                time        value

                 0.000e+00    0.000e+00
                 1.250e-08    0.000e+00
                 1.260e-08    9.000e-01
                 1.500e-08    9.000e-01
                 1.510e-08    0.000e+00
                 2.250e-08    0.000e+00
                 2.260e-08    9.000e-01
                 2.500e-08    9.000e-01
                 2.510e-08    0.000e+00
                 3.250e-08    0.000e+00
                 3.260e-08    9.000e-01
                 3.500e-08    9.000e-01


  vrwlb  rwlb              0                  9.000e-01  0.000e+00  0.000e+00 pwl  
                time        value

                 0.000e+00    9.000e-01
                 1.250e-08    9.000e-01
                 1.260e-08    0.000e+00
                 1.500e-08    0.000e+00
                 1.510e-08    9.000e-01
                 2.250e-08    9.000e-01
                 2.260e-08    0.000e+00
                 2.500e-08    0.000e+00
                 2.510e-08    9.000e-01
                 3.250e-08    9.000e-01
                 3.260e-08    0.000e+00
                 3.500e-08    0.000e+00


  vwbl  wbl               0                  0.000e+00  0.000e+00  0.000e+00 pwl  
                time        value

                 0.000e+00    0.000e+00
                 5.000e-09    0.000e+00
                 5.100e-09    4.500e-01
                 1.000e-08    4.500e-01
                 1.010e-08    0.000e+00
                 1.500e-08    0.000e+00
                 1.510e-08    9.000e-01
                 2.000e-08    9.000e-01
                 2.010e-08    0.000e+00
                 3.000e-08    0.000e+00
                 4.000e-08    0.000e+00


  vwwl  wwl               0                  0.000e+00  0.000e+00  0.000e+00 pwl  
                time        value

                 0.000e+00    0.000e+00
                 7.500e-09    0.000e+00
                 7.600e-09    9.000e-01
                 1.000e-08    9.000e-01
                 1.010e-08    0.000e+00
                 1.750e-08    0.000e+00
                 1.760e-08    9.000e-01
                 2.000e-08    9.000e-01
                 2.010e-08    0.000e+00
                 2.750e-08    0.000e+00
                 2.760e-08    9.000e-01
                 3.000e-08    9.000e-01
                 3.010e-08    0.000e+00
                 4.000e-08    0.000e+00


  vwwlb  wwlb              0                  9.000e-01  0.000e+00  0.000e+00 pwl  
                time        value

                 0.000e+00    9.000e-01
                 7.500e-09    9.000e-01
                 7.600e-09    0.000e+00
                 1.000e-08    0.000e+00
                 1.010e-08    9.000e-01
                 1.750e-08    9.000e-01
                 1.760e-08    0.000e+00
                 2.000e-08    0.000e+00
                 2.010e-08    9.000e-01
                 2.750e-08    9.000e-01
                 2.760e-08    0.000e+00
                 3.000e-08    0.000e+00
                 3.010e-08    9.000e-01
                 4.000e-08    9.000e-01




 **** subcircuit calls
    name        subcircuit         external nodes


         0:xcnt7    pcnfet          0:vdd         0:q           0:n2      
                               0:n2      


         0:xcnt8    pcnfet          0:vdd         0:q           0:qb      
                               0:qb      


         0:xcnt6    pcnfet          0:qb          0:qb          0:n2      
                               0:n2      


         0:xcnt5    ncnfet          0:qb          0:qb          0:n1      
                               0:n1      


         0:xcnt3    ncnfet          0:n1          0:q           0:0       
                               0:0       


         0:xcnt4    ncnfet          0:qb          0:q           0:0       
                               0:0       


         0:xcnt14   pcnfet          0:vdd         0:qb          0:q       
                               0:q       


         0:xcnt13   pcnfet          0:vdd         0:qb          0:n4      
                               0:n4      


         0:xcnt12   pcnfet          0:q           0:q           0:n4      
                               0:n4      


         0:xcnt11   ncnfet          0:q           0:q           0:n3      
                               0:n3      


         0:xcnt10   ncnfet          0:q           0:qb          0:0       
                               0:0       


         0:xcnt9    ncnfet          0:n3          0:qb          0:0       
                               0:0       


         0:xcnt2    pcnfet          0:q           0:wwlb        0:wbl     
                               0:wbl     


         0:xcnt1    ncnfet          0:wbl         0:wwl         0:q       
                               0:q       


         0:xcnt16   pcnfet          0:vdd         0:qb          0:n5      
                               0:n5      


         0:xcnt15   ncnfet          0:n5          0:qb          0:0       
                               0:0       


         0:xcnt18   pcnfet          0:rbl         0:rwlb        0:n5      
                               0:n5      


         0:xcnt17   ncnfet          0:n5          0:rwl         0:rbl     
                               0:rbl     


  
1****** HSPICE -- H-2013.03 64-BIT (Mar  7 2013) win64 ******                   
 ******  
 'inverter'

  ******  element node table
                                                                                      
 0                vdd              vrwl             vrwlb            vwbl             
                  vwwl             vwwlb                                              
 rbl              ic1                                                                 
 rwl              vrwl                                                                
 rwlb             vrwlb                                                               
 vdd              vdd                                                                 
 wbl              vwbl                                                                
 wwl              vwwl                                                                
 wwlb             vwwlb                                                               
  **warning** PIVOT option setting is simplified, pivot = 13 is obsolete,
              automatically switch to pivot = 1.
 *****************************************************************
 ******  option summary
 ******
 runlvl  = 3         bypass  = 2         
  Opening plot unit= 79
 file=sram180nmread.pa0

 no convergence with standard algorithm,  trying damped pseudo-transient

  *** initial damped pseudo transient completed. ***
  *** final try started ***
 **info** remove gshunt failed
  **info** try to load final result like nodeset

 **info** gmin ramping for pseudo-tran
 final try failed.

  *** final try succeeded *** 
1****** HSPICE -- H-2013.03 64-BIT (Mar  7 2013) win64 ******                   
 ******  
 'inverter'

  ******  operating point information tnom=  25.000 temp=  25.000 *****
 ***** operating point status is voltage   simulation time is   0.000e+00
     node    =voltage       node    =voltage       node    =voltage

 + 0:n1      = 1.313e-02  0:n2      = 8.866e-01  0:n3      = 1.313e-02
 + 0:n4      = 8.866e-01  0:n5      = 5.665e-04  0:q       = 4.495e-01
 + 0:qb      = 4.495e-01  0:rbl     = 4.500e-01  0:rwl     = 0.000e+00
 + 0:rwlb    = 9.000e-01  0:vdd     = 9.000e-01  0:wbl     = 0.000e+00
 + 0:wwl     = 0.000e+00  0:wwlb    = 9.000e-01

 ******  
 'inverter'

  ******  transient analysis tnom=  25.000 temp=  25.000 *****
x

        time    voltage    
                    rbl    
  0.0000e+00    4.500e-01  
  1.0000e-10    4.495e-01  
  2.0000e-10    4.490e-01  
  3.0000e-10    4.486e-01  
  4.0000e-10    4.481e-01  
  5.0000e-10    4.477e-01  
  6.0000e-10    4.472e-01  
  7.0000e-10    4.468e-01  
  8.0000e-10    4.463e-01  
  9.0000e-10    4.459e-01  
  1.0000e-09    4.455e-01  
  1.1000e-09    4.450e-01  
  1.2000e-09    4.446e-01  
  1.3000e-09    4.442e-01  
  1.4000e-09    4.438e-01  
  1.5000e-09    4.434e-01  
  1.6000e-09    4.430e-01  
  1.7000e-09    4.426e-01  
  1.8000e-09    4.421e-01  
  1.9000e-09    4.417e-01  
  2.0000e-09    4.413e-01  
  2.1000e-09    4.409e-01  
  2.2000e-09    4.405e-01  
  2.3000e-09    4.401e-01  
  2.4000e-09    4.397e-01  
  2.5000e-09    4.393e-01  
  2.6000e-09    4.389e-01  
  2.7000e-09    4.385e-01  
  2.8000e-09    4.381e-01  
  2.9000e-09    4.377e-01  
  3.0000e-09    4.373e-01  
  3.1000e-09    4.369e-01  
  3.2000e-09    4.365e-01  
  3.3000e-09    4.361e-01  
  3.4000e-09    4.358e-01  
  3.5000e-09    4.354e-01  
  3.6000e-09    4.351e-01  
  3.7000e-09    4.347e-01  
  3.8000e-09    4.343e-01  
  3.9000e-09    4.340e-01  
  4.0000e-09    4.336e-01  
  4.1000e-09    4.333e-01  
  4.2000e-09    4.329e-01  
  4.3000e-09    4.325e-01  
  4.4000e-09    4.322e-01  
  4.5000e-09    4.318e-01  
  4.6000e-09    4.315e-01  
  4.7000e-09    4.311e-01  
  4.8000e-09    4.308e-01  
  4.9000e-09    4.304e-01  
  5.0000e-09    4.300e-01  
  5.1000e-09    4.297e-01  
  5.2000e-09    4.294e-01  
  5.3000e-09    4.290e-01  
  5.4000e-09    4.287e-01  
  5.5000e-09    4.284e-01  
  5.6000e-09    4.280e-01  
  5.7000e-09    4.277e-01  
  5.8000e-09    4.274e-01  
  5.9000e-09    4.270e-01  
  6.0000e-09    4.267e-01  
  6.1000e-09    4.264e-01  
  6.2000e-09    4.261e-01  
  6.3000e-09    4.258e-01  
  6.4000e-09    4.255e-01  
  6.5000e-09    4.252e-01  
  6.6000e-09    4.248e-01  
  6.7000e-09    4.245e-01  
  6.8000e-09    4.242e-01  
  6.9000e-09    4.239e-01  
  7.0000e-09    4.236e-01  
  7.1000e-09    4.233e-01  
  7.2000e-09    4.230e-01  
  7.3000e-09    4.227e-01  
  7.4000e-09    4.223e-01  
  7.5000e-09    4.220e-01  
  7.6000e-09    4.217e-01  
  7.7000e-09    4.214e-01  
  7.8000e-09    4.211e-01  
  7.9000e-09    4.208e-01  
  8.0000e-09    4.206e-01  
  8.1000e-09    4.203e-01  
  8.2000e-09    4.200e-01  
  8.3000e-09    4.197e-01  
  8.4000e-09    4.194e-01  
  8.5000e-09    4.191e-01  
  8.6000e-09    4.188e-01  
  8.7000e-09    4.185e-01  
  8.8000e-09    4.183e-01  
  8.9000e-09    4.180e-01  
  9.0000e-09    4.177e-01  
  9.1000e-09    4.174e-01  
  9.2000e-09    4.172e-01  
  9.3000e-09    4.169e-01  
  9.4000e-09    4.166e-01  
  9.5000e-09    4.163e-01  
  9.6000e-09    4.160e-01  
  9.7000e-09    4.158e-01  
  9.8000e-09    4.155e-01  
  9.9000e-09    4.152e-01  
  1.0000e-08    4.149e-01  
  1.0100e-08    4.147e-01  
  1.0200e-08    4.144e-01  
  1.0300e-08    4.141e-01  
  1.0400e-08    4.139e-01  
  1.0500e-08    4.136e-01  
  1.0600e-08    4.133e-01  
  1.0700e-08    4.131e-01  
  1.0800e-08    4.128e-01  
  1.0900e-08    4.126e-01  
  1.1000e-08    4.123e-01  
  1.1100e-08    4.121e-01  
  1.1200e-08    4.118e-01  
  1.1300e-08    4.116e-01  
  1.1400e-08    4.113e-01  
  1.1500e-08    4.110e-01  
  1.1600e-08    4.108e-01  
  1.1700e-08    4.105e-01  
  1.1800e-08    4.103e-01  
  1.1900e-08    4.100e-01  
  1.2000e-08    4.098e-01  
  1.2100e-08    4.095e-01  
  1.2200e-08    4.093e-01  
  1.2300e-08    4.090e-01  
  1.2400e-08    4.088e-01  
  1.2500e-08    4.086e-01  
  1.2600e-08    4.469e-01  
  1.2700e-08    4.425e-01  
  1.2800e-08    4.382e-01  
  1.2900e-08    4.338e-01  
  1.3000e-08    4.295e-01  
  1.3100e-08    4.251e-01  
  1.3200e-08    4.207e-01  
  1.3300e-08    4.164e-01  
  1.3400e-08    4.120e-01  
  1.3500e-08    4.076e-01  
  1.3600e-08    4.033e-01  
  1.3700e-08    3.989e-01  
  1.3800e-08    3.945e-01  
  1.3900e-08    3.902e-01  
  1.4000e-08    3.857e-01  
  1.4100e-08    3.812e-01  
  1.4200e-08    3.768e-01  
  1.4300e-08    3.723e-01  
  1.4400e-08    3.678e-01  
  1.4500e-08    3.633e-01  
  1.4600e-08    3.589e-01  
  1.4700e-08    3.544e-01  
  1.4800e-08    3.499e-01  
  1.4900e-08    3.455e-01  
  1.5000e-08    3.410e-01  
  1.5100e-08   -2.303e-01  
  1.5200e-08   -1.213e-01  
  1.5300e-08   -9.933e-02  
  1.5400e-08   -8.746e-02  
  1.5500e-08   -7.883e-02  
  1.5600e-08   -7.365e-02  
  1.5700e-08   -6.847e-02  
  1.5800e-08   -6.514e-02  
  1.5900e-08   -6.209e-02  
  1.6000e-08   -5.904e-02  
  1.6100e-08   -5.639e-02  
  1.6200e-08   -5.453e-02  
  1.6300e-08   -5.268e-02  
  1.6400e-08   -5.083e-02  
  1.6500e-08   -4.897e-02  
  1.6600e-08   -4.712e-02  
  1.6700e-08   -4.581e-02  
  1.6800e-08   -4.468e-02  
  1.6900e-08   -4.356e-02  
  1.7000e-08   -4.243e-02  
  1.7100e-08   -4.131e-02  
  1.7200e-08   -4.018e-02  
  1.7300e-08   -3.905e-02  
  1.7400e-08   -3.793e-02  
  1.7500e-08   -3.680e-02  
  1.7600e-08   -7.224e-02  
  1.7700e-08    2.326e-01  
  1.7800e-08    2.387e-01  
  1.7900e-08    2.391e-01  
  1.8000e-08    2.396e-01  
  1.8100e-08    2.401e-01  
  1.8200e-08    2.405e-01  
  1.8300e-08    2.409e-01  
  1.8400e-08    2.414e-01  
  1.8500e-08    2.419e-01  
  1.8600e-08    2.423e-01  
  1.8700e-08    2.428e-01  
  1.8800e-08    2.432e-01  
  1.8900e-08    2.436e-01  
  1.9000e-08    2.440e-01  
  1.9100e-08    2.445e-01  
  1.9200e-08    2.449e-01  
  1.9300e-08    2.453e-01  
  1.9400e-08    2.458e-01  
  1.9500e-08    2.463e-01  
  1.9600e-08    2.467e-01  
  1.9700e-08    2.472e-01  
  1.9800e-08    2.477e-01  
  1.9900e-08    2.481e-01  
  2.0000e-08    2.486e-01  
  2.0100e-08    2.489e-01  
  2.0200e-08    2.494e-01  
  2.0300e-08    2.498e-01  
  2.0400e-08    2.503e-01  
  2.0500e-08    2.507e-01  
  2.0600e-08    2.512e-01  
  2.0700e-08    2.516e-01  
  2.0800e-08    2.521e-01  
  2.0900e-08    2.525e-01  
  2.1000e-08    2.530e-01  
  2.1100e-08    2.534e-01  
  2.1200e-08    2.538e-01  
  2.1300e-08    2.543e-01  
  2.1400e-08    2.547e-01  
  2.1500e-08    2.552e-01  
  2.1600e-08    2.556e-01  
  2.1700e-08    2.561e-01  
  2.1800e-08    2.565e-01  
  2.1900e-08    2.569e-01  
  2.2000e-08    2.574e-01  
  2.2100e-08    2.578e-01  
  2.2200e-08    2.583e-01  
  2.2300e-08    2.587e-01  
  2.2400e-08    2.592e-01  
  2.2500e-08    2.596e-01  
  2.2600e-08    8.779e-01  
  2.2700e-08    9.000e-01  
  2.2800e-08    8.999e-01  
  2.2900e-08    9.000e-01  
  2.3000e-08    9.001e-01  
  2.3100e-08    9.001e-01  
  2.3200e-08    9.000e-01  
  2.3300e-08    9.000e-01  
  2.3400e-08    8.999e-01  
  2.3500e-08    8.999e-01  
  2.3600e-08    8.999e-01  
  2.3700e-08    8.999e-01  
  2.3800e-08    9.000e-01  
  2.3900e-08    9.000e-01  
  2.4000e-08    9.000e-01  
  2.4100e-08    9.000e-01  
  2.4200e-08    9.000e-01  
  2.4300e-08    9.000e-01  
  2.4400e-08    9.001e-01  
  2.4500e-08    9.001e-01  
  2.4600e-08    9.001e-01  
  2.4700e-08    9.000e-01  
  2.4800e-08    9.000e-01  
  2.4900e-08    9.000e-01  
  2.5000e-08    8.999e-01  
  2.5100e-08    8.252e-01  
  2.5200e-08    8.244e-01  
  2.5300e-08    8.247e-01  
  2.5400e-08    8.250e-01  
  2.5500e-08    8.252e-01  
  2.5600e-08    8.255e-01  
  2.5700e-08    8.258e-01  
  2.5800e-08    8.261e-01  
  2.5900e-08    8.264e-01  
  2.6000e-08    8.266e-01  
  2.6100e-08    8.269e-01  
  2.6200e-08    8.272e-01  
  2.6300e-08    8.275e-01  
  2.6400e-08    8.277e-01  
  2.6500e-08    8.280e-01  
  2.6600e-08    8.283e-01  
  2.6700e-08    8.285e-01  
  2.6800e-08    8.288e-01  
  2.6900e-08    8.291e-01  
  2.7000e-08    8.293e-01  
  2.7100e-08    8.296e-01  
  2.7200e-08    8.299e-01  
  2.7300e-08    8.301e-01  
  2.7400e-08    8.304e-01  
  2.7500e-08    8.307e-01  
  2.7600e-08    8.282e-01  
  2.7700e-08    5.492e-01  
  2.7800e-08    5.459e-01  
  2.7900e-08    5.439e-01  
  2.8000e-08    5.421e-01  
  2.8100e-08    5.400e-01  
  2.8200e-08    5.387e-01  
  2.8300e-08    5.366e-01  
  2.8400e-08    5.353e-01  
  2.8500e-08    5.333e-01  
  2.8600e-08    5.317e-01  
  2.8700e-08    5.304e-01  
  2.8800e-08    5.287e-01  
  2.8900e-08    5.270e-01  
  2.9000e-08    5.256e-01  
  2.9100e-08    5.243e-01  
  2.9200e-08    5.230e-01  
  2.9300e-08    5.214e-01  
  2.9400e-08    5.199e-01  
  2.9500e-08    5.185e-01  
  2.9600e-08    5.173e-01  
  2.9700e-08    5.161e-01  
  2.9800e-08    5.150e-01  
  2.9900e-08    5.135e-01  
  3.0000e-08    5.120e-01  
  3.0100e-08    5.111e-01  
  3.0200e-08    5.099e-01  
  3.0300e-08    5.087e-01  
  3.0400e-08    5.075e-01  
  3.0500e-08    5.064e-01  
  3.0600e-08    5.053e-01  
  3.0700e-08    5.043e-01  
  3.0800e-08    5.032e-01  
  3.0900e-08    5.021e-01  
  3.1000e-08    5.011e-01  
  3.1100e-08    5.000e-01  
  3.1200e-08    4.990e-01  
  3.1300e-08    4.981e-01  
  3.1400e-08    4.971e-01  
  3.1500e-08    4.962e-01  
  3.1600e-08    4.953e-01  
  3.1700e-08    4.943e-01  
  3.1800e-08    4.934e-01  
  3.1900e-08    4.925e-01  
  3.2000e-08    4.916e-01  
  3.2100e-08    4.906e-01  
  3.2200e-08    4.897e-01  
  3.2300e-08    4.888e-01  
  3.2400e-08    4.879e-01  
  3.2500e-08    4.869e-01  
  3.2600e-08    3.916e-02  
  3.2700e-08    4.375e-05  
  3.2800e-08   -3.913e-05  
  3.2900e-08   -6.973e-06  
  3.3000e-08    3.459e-05  
  3.3100e-08    3.648e-05  
  3.3200e-08    2.204e-05  
  3.3300e-08    7.600e-06  
  3.3400e-08   -6.839e-06  
  3.3500e-08   -2.128e-05  
  3.3600e-08   -3.572e-05  
  3.3700e-08   -4.345e-05  
  3.3800e-08   -3.651e-05  
  3.3900e-08   -2.957e-05  
  3.4000e-08   -2.263e-05  
  3.4100e-08   -1.570e-05  
  3.4200e-08   -8.759e-06  
  3.4300e-08   -1.821e-06  
  3.4400e-08    5.116e-06  
  3.4500e-08    1.205e-05  
  3.4600e-08    1.899e-05  
  3.4700e-08    2.593e-05  
  3.4800e-08    3.287e-05  
  3.4900e-08    3.980e-05  
  3.5000e-08    4.674e-05  
  3.5100e-08    4.212e-05  
  3.5200e-08    3.750e-05  
  3.5300e-08    3.288e-05  
  3.5400e-08    2.827e-05  
  3.5500e-08    2.365e-05  
  3.5600e-08    1.903e-05  
  3.5700e-08    1.441e-05  
  3.5800e-08    9.790e-06  
  3.5900e-08    5.171e-06  
  3.6000e-08    5.521e-07  
  3.6100e-08    5.524e-07  
  3.6200e-08    5.526e-07  
  3.6300e-08    5.528e-07  
  3.6400e-08    5.530e-07  
  3.6500e-08    5.533e-07  
  3.6600e-08    5.535e-07  
  3.6700e-08    5.537e-07  
  3.6800e-08    5.540e-07  
  3.6900e-08    5.542e-07  
  3.7000e-08    5.544e-07  
  3.7100e-08    5.546e-07  
  3.7200e-08    5.549e-07  
  3.7300e-08    5.551e-07  
  3.7400e-08    5.553e-07  
  3.7500e-08    5.555e-07  
  3.7600e-08    5.558e-07  
  3.7700e-08    5.560e-07  
  3.7800e-08    5.562e-07  
  3.7900e-08    5.565e-07  
  3.8000e-08    5.567e-07  
  3.8100e-08    5.565e-07  
  3.8200e-08    5.563e-07  
  3.8300e-08    5.561e-07  
  3.8400e-08    5.559e-07  
  3.8500e-08    5.557e-07  
  3.8600e-08    5.555e-07  
  3.8700e-08    5.553e-07  
  3.8800e-08    5.551e-07  
  3.8900e-08    5.550e-07  
  3.9000e-08    5.548e-07  
  3.9100e-08    5.546e-07  
  3.9200e-08    5.544e-07  
  3.9300e-08    5.542e-07  
  3.9400e-08    5.540e-07  
  3.9500e-08    5.538e-07  
  3.9600e-08    5.536e-07  
  3.9700e-08    5.534e-07  
  3.9800e-08    5.532e-07  
  3.9900e-08    5.530e-07  
  4.0000e-08    5.528e-07  
y
-----------------------------------------------
x

        time    current    
                    vdd    
  0.0000e+00   -6.725e-07  
  1.0000e-10   -6.725e-07  
  2.0000e-10   -6.725e-07  
  3.0000e-10   -6.725e-07  
  4.0000e-10   -6.725e-07  
  5.0000e-10   -6.725e-07  
  6.0000e-10   -6.725e-07  
  7.0000e-10   -6.725e-07  
  8.0000e-10   -6.725e-07  
  9.0000e-10   -6.725e-07  
  1.0000e-09   -6.725e-07  
  1.1000e-09   -6.725e-07  
  1.2000e-09   -6.725e-07  
  1.3000e-09   -6.725e-07  
  1.4000e-09   -6.725e-07  
  1.5000e-09   -6.725e-07  
  1.6000e-09   -6.725e-07  
  1.7000e-09   -6.725e-07  
  1.8000e-09   -6.725e-07  
  1.9000e-09   -6.725e-07  
  2.0000e-09   -6.725e-07  
  2.1000e-09   -6.725e-07  
  2.2000e-09   -6.725e-07  
  2.3000e-09   -6.725e-07  
  2.4000e-09   -6.725e-07  
  2.5000e-09   -6.725e-07  
  2.6000e-09   -6.725e-07  
  2.7000e-09   -6.725e-07  
  2.8000e-09   -6.725e-07  
  2.9000e-09   -6.725e-07  
  3.0000e-09   -6.725e-07  
  3.1000e-09   -6.725e-07  
  3.2000e-09   -6.725e-07  
  3.3000e-09   -6.725e-07  
  3.4000e-09   -6.725e-07  
  3.5000e-09   -6.725e-07  
  3.6000e-09   -6.725e-07  
  3.7000e-09   -6.725e-07  
  3.8000e-09   -6.725e-07  
  3.9000e-09   -6.725e-07  
  4.0000e-09   -6.725e-07  
  4.1000e-09   -6.725e-07  
  4.2000e-09   -6.725e-07  
  4.3000e-09   -6.725e-07  
  4.4000e-09   -6.725e-07  
  4.5000e-09   -6.725e-07  
  4.6000e-09   -6.725e-07  
  4.7000e-09   -6.725e-07  
  4.8000e-09   -6.725e-07  
  4.9000e-09   -6.725e-07  
  5.0000e-09   -6.725e-07  
  5.1000e-09   -6.646e-07  
  5.2000e-09   -6.725e-07  
  5.3000e-09   -6.724e-07  
  5.4000e-09   -6.725e-07  
  5.5000e-09   -6.725e-07  
  5.6000e-09   -6.725e-07  
  5.7000e-09   -6.725e-07  
  5.8000e-09   -6.724e-07  
  5.9000e-09   -6.724e-07  
  6.0000e-09   -6.724e-07  
  6.1000e-09   -6.724e-07  
  6.2000e-09   -6.724e-07  
  6.3000e-09   -6.724e-07  
  6.4000e-09   -6.724e-07  
  6.5000e-09   -6.724e-07  
  6.6000e-09   -6.724e-07  
  6.7000e-09   -6.724e-07  
  6.8000e-09   -6.724e-07  
  6.9000e-09   -6.725e-07  
  7.0000e-09   -6.725e-07  
  7.1000e-09   -6.725e-07  
  7.2000e-09   -6.725e-07  
  7.3000e-09   -6.725e-07  
  7.4000e-09   -6.725e-07  
  7.5000e-09   -6.725e-07  
  7.6000e-09   -6.594e-07  
  7.7000e-09   -6.705e-07  
  7.8000e-09   -6.700e-07  
  7.9000e-09   -6.707e-07  
  8.0000e-09   -6.708e-07  
  8.1000e-09   -6.705e-07  
  8.2000e-09   -6.703e-07  
  8.3000e-09   -6.700e-07  
  8.4000e-09   -6.697e-07  
  8.5000e-09   -6.696e-07  
  8.6000e-09   -6.697e-07  
  8.7000e-09   -6.698e-07  
  8.8000e-09   -6.699e-07  
  8.9000e-09   -6.700e-07  
  9.0000e-09   -6.701e-07  
  9.1000e-09   -6.702e-07  
  9.2000e-09   -6.703e-07  
  9.3000e-09   -6.704e-07  
  9.4000e-09   -6.704e-07  
  9.5000e-09   -6.705e-07  
  9.6000e-09   -6.706e-07  
  9.7000e-09   -6.707e-07  
  9.8000e-09   -6.708e-07  
  9.9000e-09   -6.709e-07  
  1.0000e-08   -6.710e-07  
  1.0100e-08   -7.157e-07  
  1.0200e-08   -6.728e-07  
  1.0300e-08   -6.719e-07  
  1.0400e-08   -6.725e-07  
  1.0500e-08   -6.730e-07  
  1.0600e-08   -6.728e-07  
  1.0700e-08   -6.726e-07  
  1.0800e-08   -6.724e-07  
  1.0900e-08   -6.722e-07  
  1.1000e-08   -6.719e-07  
  1.1100e-08   -6.719e-07  
  1.1200e-08   -6.720e-07  
  1.1300e-08   -6.721e-07  
  1.1400e-08   -6.722e-07  
  1.1500e-08   -6.723e-07  
  1.1600e-08   -6.724e-07  
  1.1700e-08   -6.725e-07  
  1.1800e-08   -6.726e-07  
  1.1900e-08   -6.727e-07  
  1.2000e-08   -6.728e-07  
  1.2100e-08   -6.729e-07  
  1.2200e-08   -6.730e-07  
  1.2300e-08   -6.730e-07  
  1.2400e-08   -6.725e-07  
  1.2500e-08   -6.719e-07  
  1.2600e-08   -6.558e-07  
  1.2700e-08   -6.726e-07  
  1.2800e-08   -6.728e-07  
  1.2900e-08   -6.729e-07  
  1.3000e-08   -6.726e-07  
  1.3100e-08   -6.723e-07  
  1.3200e-08   -6.724e-07  
  1.3300e-08   -6.725e-07  
  1.3400e-08   -6.726e-07  
  1.3500e-08   -6.727e-07  
  1.3600e-08   -6.728e-07  
  1.3700e-08   -6.729e-07  
  1.3800e-08   -6.730e-07  
  1.3900e-08   -6.731e-07  
  1.4000e-08   -6.730e-07  
  1.4100e-08   -6.729e-07  
  1.4200e-08   -6.729e-07  
  1.4300e-08   -6.728e-07  
  1.4400e-08   -6.727e-07  
  1.4500e-08   -6.727e-07  
  1.4600e-08   -6.726e-07  
  1.4700e-08   -6.725e-07  
  1.4800e-08   -6.725e-07  
  1.4900e-08   -6.724e-07  
  1.5000e-08   -6.723e-07  
  1.5100e-08   -6.602e-07  
  1.5200e-08   -6.700e-07  
  1.5300e-08   -6.715e-07  
  1.5400e-08   -6.719e-07  
  1.5500e-08   -6.722e-07  
  1.5600e-08   -6.723e-07  
  1.5700e-08   -6.723e-07  
  1.5800e-08   -6.724e-07  
  1.5900e-08   -6.724e-07  
  1.6000e-08   -6.724e-07  
  1.6100e-08   -6.724e-07  
  1.6200e-08   -6.724e-07  
  1.6300e-08   -6.724e-07  
  1.6400e-08   -6.724e-07  
  1.6500e-08   -6.724e-07  
  1.6600e-08   -6.724e-07  
  1.6700e-08   -6.724e-07  
  1.6800e-08   -6.724e-07  
  1.6900e-08   -6.724e-07  
  1.7000e-08   -6.724e-07  
  1.7100e-08   -6.724e-07  
  1.7200e-08   -6.724e-07  
  1.7300e-08   -6.724e-07  
  1.7400e-08   -6.724e-07  
  1.7500e-08   -6.724e-07  
  1.7600e-08   -9.129e-07  
  1.7700e-08   -4.796e-07  
  1.7800e-08    1.915e-08  
  1.7900e-08   -6.362e-08  
  1.8000e-08    4.242e-08  
  1.8100e-08    2.037e-08  
  1.8200e-08   -4.234e-08  
  1.8300e-08   -4.824e-08  
  1.8400e-08   -1.132e-08  
  1.8500e-08    2.560e-08  
  1.8600e-08    6.251e-08  
  1.8700e-08    4.944e-08  
  1.8800e-08    2.782e-08  
  1.8900e-08    6.205e-09  
  1.9000e-08   -1.541e-08  
  1.9100e-08   -3.703e-08  
  1.9200e-08   -5.864e-08  
  1.9300e-08   -5.957e-08  
  1.9400e-08   -4.136e-08  
  1.9500e-08   -2.316e-08  
  1.9600e-08   -4.961e-09  
  1.9700e-08    1.324e-08  
  1.9800e-08    3.144e-08  
  1.9900e-08    4.964e-08  
  2.0000e-08    6.784e-08  
  2.0100e-08   -9.878e-08  
  2.0200e-08   -2.228e-09  
  2.0300e-08   -2.760e-09  
  2.0400e-08   -2.273e-09  
  2.0500e-08   -2.663e-09  
  2.0600e-08   -3.054e-09  
  2.0700e-08   -3.054e-09  
  2.0800e-08   -2.941e-09  
  2.0900e-08   -2.828e-09  
  2.1000e-08   -2.715e-09  
  2.1100e-08   -2.602e-09  
  2.1200e-08   -2.490e-09  
  2.1300e-08   -2.377e-09  
  2.1400e-08   -2.264e-09  
  2.1500e-08   -2.238e-09  
  2.1600e-08   -2.323e-09  
  2.1700e-08   -2.408e-09  
  2.1800e-08   -2.492e-09  
  2.1900e-08   -2.577e-09  
  2.2000e-08   -2.662e-09  
  2.2100e-08   -2.747e-09  
  2.2200e-08   -2.831e-09  
  2.2300e-08   -2.916e-09  
  2.2400e-08   -3.001e-09  
  2.2500e-08   -3.086e-09  
  2.2600e-08   -2.711e-07  
  2.2700e-08   -2.223e-09  
  2.2800e-08   -3.483e-09  
  2.2900e-08   -2.965e-09  
  2.3000e-08   -1.930e-09  
  2.3100e-08   -1.749e-09  
  2.3200e-08   -2.258e-09  
  2.3300e-08   -2.768e-09  
  2.3400e-08   -3.277e-09  
  2.3500e-08   -3.712e-09  
  2.3600e-08   -3.516e-09  
  2.3700e-08   -3.319e-09  
  2.3800e-08   -3.122e-09  
  2.3900e-08   -2.926e-09  
  2.4000e-08   -2.729e-09  
  2.4100e-08   -2.532e-09  
  2.4200e-08   -2.336e-09  
  2.4300e-08   -2.139e-09  
  2.4400e-08   -1.943e-09  
  2.4500e-08   -1.746e-09  
  2.4600e-08   -1.549e-09  
  2.4700e-08   -1.988e-09  
  2.4800e-08   -2.549e-09  
  2.4900e-08   -3.111e-09  
  2.5000e-08   -3.672e-09  
  2.5100e-08    5.197e-08  
  2.5200e-08   -3.217e-09  
  2.5300e-08   -2.161e-09  
  2.5400e-08   -2.677e-09  
  2.5500e-08   -3.194e-09  
  2.5600e-08   -3.096e-09  
  2.5700e-08   -2.911e-09  
  2.5800e-08   -2.725e-09  
  2.5900e-08   -2.539e-09  
  2.6000e-08   -2.353e-09  
  2.6100e-08   -2.168e-09  
  2.6200e-08   -2.042e-09  
  2.6300e-08   -2.135e-09  
  2.6400e-08   -2.227e-09  
  2.6500e-08   -2.319e-09  
  2.6600e-08   -2.411e-09  
  2.6700e-08   -2.504e-09  
  2.6800e-08   -2.596e-09  
  2.6900e-08   -2.688e-09  
  2.7000e-08   -2.781e-09  
  2.7100e-08   -2.873e-09  
  2.7200e-08   -2.965e-09  
  2.7300e-08   -3.057e-09  
  2.7400e-08   -3.150e-09  
  2.7500e-08   -3.242e-09  
  2.7600e-08   -7.609e-06  
  2.7700e-08   -8.117e-07  
  2.7800e-08    2.434e-08  
  2.7900e-08    9.853e-09  
  2.8000e-08    9.924e-09  
  2.8100e-08   -1.558e-07  
  2.8200e-08    1.044e-07  
  2.8300e-08   -1.180e-07  
  2.8400e-08    1.516e-07  
  2.8500e-08   -5.482e-08  
  2.8600e-08   -6.589e-08  
  2.8700e-08    1.223e-07  
  2.8800e-08    3.783e-08  
  2.8900e-08   -1.194e-07  
  2.9000e-08   -6.864e-08  
  2.9100e-08    6.270e-08  
  2.9200e-08    1.352e-07  
  2.9300e-08    2.555e-08  
  2.9400e-08   -8.413e-08  
  2.9500e-08   -1.377e-07  
  2.9600e-08   -4.603e-08  
  2.9700e-08    4.560e-08  
  2.9800e-08    1.372e-07  
  2.9900e-08    2.489e-08  
  3.0000e-08   -1.632e-07  
  3.0100e-08    1.411e-08  
  3.0200e-08   -9.210e-10  
  3.0300e-08   -2.886e-10  
  3.0400e-08   -5.724e-10  
  3.0500e-08   -8.494e-10  
  3.0600e-08   -7.608e-10  
  3.0700e-08   -6.722e-10  
  3.0800e-08   -5.836e-10  
  3.0900e-08   -4.950e-10  
  3.1000e-08   -4.064e-10  
  3.1100e-08   -3.177e-10  
  3.1200e-08   -2.842e-10  
  3.1300e-08   -3.262e-10  
  3.1400e-08   -3.682e-10  
  3.1500e-08   -4.102e-10  
  3.1600e-08   -4.521e-10  
  3.1700e-08   -4.941e-10  
  3.1800e-08   -5.361e-10  
  3.1900e-08   -5.781e-10  
  3.2000e-08   -6.201e-10  
  3.2100e-08   -6.620e-10  
  3.2200e-08   -7.040e-10  
  3.2300e-08   -7.460e-10  
  3.2400e-08   -7.880e-10  
  3.2500e-08   -8.299e-10  
  3.2600e-08   -1.275e-08  
  3.2700e-08   -5.800e-10  
  3.2800e-08   -4.918e-10  
  3.2900e-08   -5.440e-10  
  3.3000e-08   -6.033e-10  
  3.3100e-08   -6.031e-10  
  3.3200e-08   -5.785e-10  
  3.3300e-08   -5.538e-10  
  3.3400e-08   -5.291e-10  
  3.3500e-08   -5.045e-10  
  3.3600e-08   -4.798e-10  
  3.3700e-08   -4.668e-10  
  3.3800e-08   -4.792e-10  
  3.3900e-08   -4.916e-10  
  3.4000e-08   -5.040e-10  
  3.4100e-08   -5.163e-10  
  3.4200e-08   -5.287e-10  
  3.4300e-08   -5.411e-10  
  3.4400e-08   -5.535e-10  
  3.4500e-08   -5.659e-10  
  3.4600e-08   -5.783e-10  
  3.4700e-08   -5.907e-10  
  3.4800e-08   -6.030e-10  
  3.4900e-08   -6.154e-10  
  3.5000e-08   -6.278e-10  
  3.5100e-08   -6.194e-10  
  3.5200e-08   -6.109e-10  
  3.5300e-08   -6.024e-10  
  3.5400e-08   -5.940e-10  
  3.5500e-08   -5.855e-10  
  3.5600e-08   -5.771e-10  
  3.5700e-08   -5.686e-10  
  3.5800e-08   -5.601e-10  
  3.5900e-08   -5.517e-10  
  3.6000e-08   -5.432e-10  
  3.6100e-08   -5.433e-10  
  3.6200e-08   -5.434e-10  
  3.6300e-08   -5.435e-10  
  3.6400e-08   -5.436e-10  
  3.6500e-08   -5.437e-10  
  3.6600e-08   -5.438e-10  
  3.6700e-08   -5.439e-10  
  3.6800e-08   -5.439e-10  
  3.6900e-08   -5.440e-10  
  3.7000e-08   -5.441e-10  
  3.7100e-08   -5.442e-10  
  3.7200e-08   -5.443e-10  
  3.7300e-08   -5.444e-10  
  3.7400e-08   -5.445e-10  
  3.7500e-08   -5.446e-10  
  3.7600e-08   -5.447e-10  
  3.7700e-08   -5.448e-10  
  3.7800e-08   -5.448e-10  
  3.7900e-08   -5.449e-10  
  3.8000e-08   -5.450e-10  
  3.8100e-08   -5.450e-10  
  3.8200e-08   -5.449e-10  
  3.8300e-08   -5.448e-10  
  3.8400e-08   -5.448e-10  
  3.8500e-08   -5.447e-10  
  3.8600e-08   -5.446e-10  
  3.8700e-08   -5.446e-10  
  3.8800e-08   -5.445e-10  
  3.8900e-08   -5.445e-10  
  3.9000e-08   -5.444e-10  
  3.9100e-08   -5.443e-10  
  3.9200e-08   -5.443e-10  
  3.9300e-08   -5.442e-10  
  3.9400e-08   -5.441e-10  
  3.9500e-08   -5.441e-10  
  3.9600e-08   -5.440e-10  
  3.9700e-08   -5.439e-10  
  3.9800e-08   -5.439e-10  
  3.9900e-08   -5.438e-10  
  4.0000e-08   -5.438e-10  
y
-----------------------------------------------

          ***** job concluded
1****** HSPICE -- H-2013.03 64-BIT (Mar  7 2013) win64 ******                   
 ******  
 'inverter'

  ******  job statistics summary tnom=  25.000 temp=  25.000 *****

  ******  HSPICE Threads Information  ******

  Command Line Threads Count :     1
  Available CPU Count        :     4
  Actual Threads Count       :     1


  ******  Circuit Statistics  ******
  # nodes       =     519 # elements   =    1176
  # resistors   =     216 # capacitors =     522 # inductors   =       0
  # mutual_inds =       0 # vccs       =     144 # vcvs        =     252
  # cccs        =       0 # ccvs       =       0 # volt_srcs   =      42
  # curr_srcs   =       0 # diodes     =       0 # bjts        =       0
  # jfets       =       0 # mosfets    =       0 # U elements  =       0
  # T elements  =       0 # W elements =       0 # B elements  =       0
  # S elements  =       0 # P elements =       0 # va device   =       0
  # vector_srcs =       0 # N elements =       0


  ******  Runtime Statistics (seconds)  ******

  analysis           time    # points   tot. iter  conv.iter
  op point          23.73           1         777
  transient         14.77         401         806         243 rev=        11
  readin             0.03
  errchk             0.30
  setup              0.00
  output             0.00


           peak memory used         52.83 megabytes
           total cpu time           38.83 seconds
           total elapsed time       38.86 seconds
           job started at     22:38:38 02/26/2018
           job ended   at     22:39:17 02/26/2018


  lic: Release hspice token(s) 
 lic: total license checkout elapse time:        0.02(s)
