 ****** HSPICE -- H-2013.03 64-BIT (Mar  7 2013) win64 ******                   
  Copyright (C) 2013 Synopsys, Inc. All Rights Reserved.                        
  Unpublished-rights reserved under US copyright laws.
  This program is protected by law and is subject to the
  terms and conditions of the license agreement from Synopsys.
  Use of this program is your acceptance to be bound by the
  license agreement. HSPICE is the trademark of Synopsys, Inc.
  Input File: sram180.sp                                                        
  Command line options: -i sram180.sp -o sram180.lis
  lic:  
  lic: FLEXlm: v10.9.8 
  lic: USER:   Dell                 HOSTNAME: DESKTOP-O3DHVG1 
  lic: HOSTID: "28f10e041fd4 a0d37a293ca4 a0d37a293ca5" PID:      13320 
  lic: Using FLEXlm license file: 
  lic: C:\synopsys\Hspice_H-2013.03\lic.dat\lic.lic 
  lic: Checkout 1 hspice 
  lic: License/Maintenance for hspice will expire on 31-dec-2019/2019.12 
  lic: NODE LOCKED license on hostid "28f10e041fd4 a0d37a293ca4 a0d37a293ca5" 
  lic:   
 Init: read install configuration file: C:\synopsys\Hspice_H-2013.03\meta.cfg
 scientific notation:
 a=10**-18  f=10**-15  p=10**-12  n=10**-9  u=10**-6
 m=10**-3   k=10**3    x=10**6    g=10**9 
1****** HSPICE -- H-2013.03 64-BIT (Mar  7 2013) win64 ******                   
 ******  
 'inverter'

  ******  circuit name directory
 circuit number to circuit name directory
   number circuitname                     definition         multiplier
        0 main circuit


 circuit parameter definitions
  parameter          =  value 

     0:temp                                                    = 2.700e+01      
     0:m_cnt                                                   = 1.000e+00      
     0:wg                                                      = 4.000e-09      
     0:cb                                                      = 4.000e-11      
     0:lg                                                      = 1.800e-07      
     0:lgef                                                    = 2.000e-07      
     0:vfn                                                     = 0.000e+00      
     0:vfp                                                     = 0.000e+00      
     0:m                                                       = 0.000e+00      
     0:n                                                       = 1.900e+01      
     0:hox                                                     = 4.000e-09      
     1:tox                                                     = 4.000e-09      
     1:csub                                                    = 4.000e-11      
     1:pitch                                                   = 2.000e-08      
     1:n1                                                      = 0.000e+00      
     1:n2                                                      = 1.900e+01      
     1:vfbp                                                    = 0.000e+00      
     1:kgate                                                   = 1.600e+01      
     1:dout                                                    = 0.000e+00      
     1:sout                                                    = 0.000e+00      
     1:tubes                                                   = 1.000e+00      
     1:lch                                                     = 1.800e-07      
     1:lgeff                                                   = 2.000e-07      
     1:lss                                                     = 3.200e-08      
     1:ldd                                                     = 3.200e-08      
     2:tox                                                     = 4.000e-09      
     2:csub                                                    = 4.000e-11      
     2:pitch                                                   = 2.000e-08      
     2:n1                                                      = 0.000e+00      
     2:n2                                                      = 1.000e+01      
     2:vfbp                                                    = 0.000e+00      
     2:kgate                                                   = 1.600e+01      
     2:dout                                                    = 0.000e+00      
     2:sout                                                    = 0.000e+00      
     2:tubes                                                   = 1.000e+00      
     2:lch                                                     = 1.800e-07      
     2:lgeff                                                   = 2.000e-07      
     2:lss                                                     = 3.200e-08      
     2:ldd                                                     = 3.200e-08      
     3:tox                                                     = 4.000e-09      
     3:csub                                                    = 4.000e-11      
     3:pitch                                                   = 2.000e-08      
     3:n1                                                      = 0.000e+00      
     3:n2                                                      = 1.300e+01      
     3:vfbp                                                    = 0.000e+00      
     3:kgate                                                   = 1.600e+01      
     3:dout                                                    = 0.000e+00      
     3:sout                                                    = 0.000e+00      
     3:tubes                                                   = 1.000e+00      
     3:lch                                                     = 1.800e-07      
     3:lgeff                                                   = 2.000e-07      
     3:lss                                                     = 3.200e-08      
     3:ldd                                                     = 3.200e-08      
     4:tox                                                     = 4.000e-09      
     4:csub                                                    = 4.000e-11      
     4:vfbn                                                    = 0.000e+00      
     4:pitch                                                   = 2.000e-08      
     4:n1                                                      = 0.000e+00      
     4:n2                                                      = 1.300e+01      
     4:kgate                                                   = 1.600e+01      
     4:dout                                                    = 0.000e+00      
     4:sout                                                    = 0.000e+00      
     4:tubes                                                   = 1.000e+00      
     4:lch                                                     = 1.800e-07      
     4:lgeff                                                   = 2.000e-07      
     4:lss                                                     = 3.200e-08      
     4:ldd                                                     = 3.200e-08      
     5:tox                                                     = 4.000e-09      
     5:csub                                                    = 4.000e-11      
     5:vfbn                                                    = 0.000e+00      
     5:pitch                                                   = 2.000e-08      
     5:n1                                                      = 0.000e+00      
     5:n2                                                      = 1.900e+01      
     5:kgate                                                   = 1.600e+01      
     5:dout                                                    = 0.000e+00      
     5:sout                                                    = 0.000e+00      
     5:tubes                                                   = 1.000e+00      
     5:lch                                                     = 1.800e-07      
     5:lgeff                                                   = 2.000e-07      
     5:lss                                                     = 3.200e-08      
     5:ldd                                                     = 3.200e-08      
     6:tox                                                     = 4.000e-09      
     6:csub                                                    = 4.000e-11      
     6:vfbn                                                    = 0.000e+00      
     6:pitch                                                   = 2.000e-08      
     6:n1                                                      = 0.000e+00      
     6:n2                                                      = 1.000e+01      
     6:kgate                                                   = 1.600e+01      
     6:dout                                                    = 0.000e+00      
     6:sout                                                    = 0.000e+00      
     6:tubes                                                   = 1.000e+00      
     6:lch                                                     = 1.800e-07      
     6:lgeff                                                   = 2.000e-07      
     6:lss                                                     = 3.200e-08      
     6:ldd                                                     = 3.200e-08      




 constants  - tnom         kt           vt           gapsi        ni
            2.9815e+02   4.1163e-21   2.5692e-02   1.1156e+00   1.2565e+16 
  **info** (sram180.sp:127) DC voltage reset to initial transient source value              in source        0:vwbl                new dc=  0.0000D+00

 **warning**  associated with encrypted block(s) were suppressed due to encrypted content

1****** HSPICE -- H-2013.03 64-BIT (Mar  7 2013) win64 ******                   
 ******  
 'inverter'

  ******  circuit element summary tnom=  25.000 temp=  25.000 *****


 **** independent sources

     name         node1        node2      dc volt    ac mag    ac phase    type
  vdd  vdd               0                  9.000e-01  0.000e+00  0.000e+00 dc   
  vwbl  wbl               0                  0.000e+00  0.000e+00  0.000e+00 pwl  
                time        value

                 0.000e+00    0.000e+00
                 5.000e-09    0.000e+00
                 5.100e-09    4.500e-01
                 1.000e-08    4.500e-01
                 1.010e-08    0.000e+00
                 1.500e-08    0.000e+00
                 1.510e-08    9.000e-01
                 2.000e-08    9.000e-01
                 2.010e-08    0.000e+00
                 3.000e-08    0.000e+00
                 4.000e-08    0.000e+00


  vwwl  wwl               0                  0.000e+00  0.000e+00  0.000e+00 pwl  
                time        value

                 0.000e+00    0.000e+00
                 7.500e-09    0.000e+00
                 7.600e-09    9.000e-01
                 1.000e-08    9.000e-01
                 1.010e-08    0.000e+00
                 1.750e-08    0.000e+00
                 1.760e-08    9.000e-01
                 2.000e-08    9.000e-01
                 2.010e-08    0.000e+00
                 2.750e-08    0.000e+00
                 2.760e-08    9.000e-01
                 3.000e-08    9.000e-01
                 3.010e-08    0.000e+00
                 4.000e-08    0.000e+00


  vwwlb  wwlb              0                  9.000e-01  0.000e+00  0.000e+00 pwl  
                time        value

                 0.000e+00    9.000e-01
                 7.500e-09    9.000e-01
                 7.600e-09    0.000e+00
                 1.000e-08    0.000e+00
                 1.010e-08    9.000e-01
                 1.750e-08    9.000e-01
                 1.760e-08    0.000e+00
                 2.000e-08    0.000e+00
                 2.010e-08    9.000e-01
                 2.750e-08    9.000e-01
                 2.760e-08    0.000e+00
                 3.000e-08    0.000e+00
                 3.010e-08    9.000e-01
                 4.000e-08    9.000e-01




 **** subcircuit calls
    name        subcircuit         external nodes


         0:xcnt7    pcnfet          0:vdd         0:q           0:n2      
                               0:n2      


         0:xcnt8    pcnfet          0:vdd         0:q           0:qb      
                               0:qb      


         0:xcnt6    pcnfet          0:qb          0:qb          0:n2      
                               0:n2      


         0:xcnt5    ncnfet          0:qb          0:qb          0:n1      
                               0:n1      


         0:xcnt3    ncnfet          0:n1          0:q           0:0       
                               0:0       


         0:xcnt4    ncnfet          0:qb          0:q           0:0       
                               0:0       


         0:xcnt14   pcnfet          0:vdd         0:qb          0:q       
                               0:q       


         0:xcnt13   pcnfet          0:vdd         0:qb          0:n4      
                               0:n4      


         0:xcnt12   pcnfet          0:q           0:q           0:n4      
                               0:n4      


         0:xcnt11   ncnfet          0:q           0:q           0:n3      
                               0:n3      


         0:xcnt10   ncnfet          0:q           0:qb          0:0       
                               0:0       


         0:xcnt9    ncnfet          0:n3          0:qb          0:0       
                               0:0       


         0:xcnt2    pcnfet          0:q           0:wwlb        0:wbl     
                               0:wbl     


         0:xcnt1    ncnfet          0:wbl         0:wwl         0:q       
                               0:q       


         0:xcnt16   pcnfet          0:vdd         0:qb          0:n5      
                               0:n5      


         0:xcnt15   ncnfet          0:n5          0:qb          0:0       
                               0:0       


         0:xcnt18   pcnfet          0:rbl         0:rwlb        0:n5      
                               0:n5      


         0:xcnt17   ncnfet          0:n5          0:rwl         0:rbl     
                               0:rbl     


  
1****** HSPICE -- H-2013.03 64-BIT (Mar  7 2013) win64 ******                   
 ******  
 'inverter'

  ******  element node table
                                                                                      
 0                vdd              vwbl             vwwl             vwwlb            
 vdd              vdd                                                                 
 wbl              vwbl                                                                
 wwl              vwwl                                                                
 wwlb             vwwlb                                                               
  **warning** PIVOT option setting is simplified, pivot = 13 is obsolete,
              automatically switch to pivot = 1.
 *****************************************************************
 ******  option summary
 ******
 runlvl  = 3         bypass  = 2         
  Opening plot unit= 79
 file=sram180.pa0

 no convergence with standard algorithm,  trying damped pseudo-transient

  *** initial damped pseudo transient completed. ***
  *** final try started ***
 **info** remove gshunt failed
  **info** try to load final result like nodeset

 **info** gmin ramping for pseudo-tran
 final try failed.

  *** final try succeeded *** 
1****** HSPICE -- H-2013.03 64-BIT (Mar  7 2013) win64 ******                   
 ******  
 'inverter'

  ******  operating point information tnom=  25.000 temp=  25.000 *****
 ***** operating point status is voltage   simulation time is   0.000e+00
     node    =voltage       node    =voltage       node    =voltage

 + 0:n1      = 1.313e-02  0:n2      = 8.866e-01  0:n3      = 1.313e-02
 + 0:n4      = 8.866e-01  0:n5      = 1.207e-04  0:q       = 4.495e-01
 + 0:qb      = 4.495e-01  0:rbl     = 1.200e-04  0:rwl     = 0.000e+00
 + 0:rwlb    = 0.000e+00  0:vdd     = 9.000e-01  0:wbl     = 0.000e+00
 + 0:wwl     = 0.000e+00  0:wwlb    = 9.000e-01

 ******  
 'inverter'

  ******  transient analysis tnom=  25.000 temp=  25.000 *****
x

        time    voltage      voltage      voltage      voltage    
                     q           qb           wbl          wwl    
  0.0000e+00    4.495e-01    4.495e-01    0.000e+00    0.000e+00  
  1.0000e-10    4.495e-01    4.495e-01    0.000e+00    0.000e+00  
  2.0000e-10    4.495e-01    4.495e-01    0.000e+00    0.000e+00  
  3.0000e-10    4.495e-01    4.495e-01    0.000e+00    0.000e+00  
  4.0000e-10    4.495e-01    4.495e-01    0.000e+00    0.000e+00  
  5.0000e-10    4.495e-01    4.495e-01    0.000e+00    0.000e+00  
  6.0000e-10    4.495e-01    4.495e-01    0.000e+00    0.000e+00  
  7.0000e-10    4.495e-01    4.495e-01    0.000e+00    0.000e+00  
  8.0000e-10    4.495e-01    4.495e-01    0.000e+00    0.000e+00  
  9.0000e-10    4.495e-01    4.495e-01    0.000e+00    0.000e+00  
  1.0000e-09    4.495e-01    4.495e-01    0.000e+00    0.000e+00  
  1.1000e-09    4.495e-01    4.495e-01    0.000e+00    0.000e+00  
  1.2000e-09    4.495e-01    4.495e-01    0.000e+00    0.000e+00  
  1.3000e-09    4.495e-01    4.495e-01    0.000e+00    0.000e+00  
  1.4000e-09    4.495e-01    4.495e-01    0.000e+00    0.000e+00  
  1.5000e-09    4.495e-01    4.495e-01    0.000e+00    0.000e+00  
  1.6000e-09    4.495e-01    4.495e-01    0.000e+00    0.000e+00  
  1.7000e-09    4.495e-01    4.495e-01    0.000e+00    0.000e+00  
  1.8000e-09    4.495e-01    4.495e-01    0.000e+00    0.000e+00  
  1.9000e-09    4.495e-01    4.495e-01    0.000e+00    0.000e+00  
  2.0000e-09    4.495e-01    4.495e-01    0.000e+00    0.000e+00  
  2.1000e-09    4.495e-01    4.495e-01    0.000e+00    0.000e+00  
  2.2000e-09    4.495e-01    4.495e-01    0.000e+00    0.000e+00  
  2.3000e-09    4.495e-01    4.495e-01    0.000e+00    0.000e+00  
  2.4000e-09    4.495e-01    4.495e-01    0.000e+00    0.000e+00  
  2.5000e-09    4.495e-01    4.495e-01    0.000e+00    0.000e+00  
  2.6000e-09    4.495e-01    4.495e-01    0.000e+00    0.000e+00  
  2.7000e-09    4.495e-01    4.495e-01    0.000e+00    0.000e+00  
  2.8000e-09    4.495e-01    4.495e-01    0.000e+00    0.000e+00  
  2.9000e-09    4.495e-01    4.495e-01    0.000e+00    0.000e+00  
  3.0000e-09    4.495e-01    4.495e-01    0.000e+00    0.000e+00  
  3.1000e-09    4.495e-01    4.495e-01    0.000e+00    0.000e+00  
  3.2000e-09    4.495e-01    4.495e-01    0.000e+00    0.000e+00  
  3.3000e-09    4.495e-01    4.495e-01    0.000e+00    0.000e+00  
  3.4000e-09    4.495e-01    4.495e-01    0.000e+00    0.000e+00  
  3.5000e-09    4.495e-01    4.495e-01    0.000e+00    0.000e+00  
  3.6000e-09    4.495e-01    4.495e-01    0.000e+00    0.000e+00  
  3.7000e-09    4.495e-01    4.495e-01    0.000e+00    0.000e+00  
  3.8000e-09    4.495e-01    4.495e-01    0.000e+00    0.000e+00  
  3.9000e-09    4.495e-01    4.495e-01    0.000e+00    0.000e+00  
  4.0000e-09    4.495e-01    4.495e-01    0.000e+00    0.000e+00  
  4.1000e-09    4.495e-01    4.495e-01    0.000e+00    0.000e+00  
  4.2000e-09    4.495e-01    4.495e-01    0.000e+00    0.000e+00  
  4.3000e-09    4.495e-01    4.495e-01    0.000e+00    0.000e+00  
  4.4000e-09    4.495e-01    4.495e-01    0.000e+00    0.000e+00  
  4.5000e-09    4.495e-01    4.495e-01    0.000e+00    0.000e+00  
  4.6000e-09    4.495e-01    4.495e-01    0.000e+00    0.000e+00  
  4.7000e-09    4.495e-01    4.495e-01    0.000e+00    0.000e+00  
  4.8000e-09    4.495e-01    4.495e-01    0.000e+00    0.000e+00  
  4.9000e-09    4.495e-01    4.495e-01    0.000e+00    0.000e+00  
  5.0000e-09    4.495e-01    4.495e-01    0.000e+00    0.000e+00  
  5.1000e-09    4.509e-01    4.494e-01    4.500e-01    0.000e+00  
  5.2000e-09    4.495e-01    4.495e-01    4.500e-01    0.000e+00  
  5.3000e-09    4.495e-01    4.495e-01    4.500e-01    0.000e+00  
  5.4000e-09    4.495e-01    4.495e-01    4.500e-01    0.000e+00  
  5.5000e-09    4.495e-01    4.495e-01    4.500e-01    0.000e+00  
  5.6000e-09    4.495e-01    4.495e-01    4.500e-01    0.000e+00  
  5.7000e-09    4.495e-01    4.495e-01    4.500e-01    0.000e+00  
  5.8000e-09    4.495e-01    4.495e-01    4.500e-01    0.000e+00  
  5.9000e-09    4.495e-01    4.495e-01    4.500e-01    0.000e+00  
  6.0000e-09    4.495e-01    4.495e-01    4.500e-01    0.000e+00  
  6.1000e-09    4.495e-01    4.495e-01    4.500e-01    0.000e+00  
  6.2000e-09    4.495e-01    4.495e-01    4.500e-01    0.000e+00  
  6.3000e-09    4.495e-01    4.495e-01    4.500e-01    0.000e+00  
  6.4000e-09    4.495e-01    4.495e-01    4.500e-01    0.000e+00  
  6.5000e-09    4.495e-01    4.495e-01    4.500e-01    0.000e+00  
  6.6000e-09    4.495e-01    4.495e-01    4.500e-01    0.000e+00  
  6.7000e-09    4.495e-01    4.495e-01    4.500e-01    0.000e+00  
  6.8000e-09    4.495e-01    4.495e-01    4.500e-01    0.000e+00  
  6.9000e-09    4.495e-01    4.495e-01    4.500e-01    0.000e+00  
  7.0000e-09    4.495e-01    4.495e-01    4.500e-01    0.000e+00  
  7.1000e-09    4.495e-01    4.495e-01    4.500e-01    0.000e+00  
  7.2000e-09    4.495e-01    4.495e-01    4.500e-01    0.000e+00  
  7.3000e-09    4.495e-01    4.495e-01    4.500e-01    0.000e+00  
  7.4000e-09    4.495e-01    4.495e-01    4.500e-01    0.000e+00  
  7.5000e-09    4.495e-01    4.495e-01    4.500e-01    0.000e+00  
  7.6000e-09    4.532e-01    4.490e-01    4.500e-01    9.000e-01  
  7.7000e-09    4.499e-01    4.495e-01    4.500e-01    9.000e-01  
  7.8000e-09    4.499e-01    4.495e-01    4.500e-01    9.000e-01  
  7.9000e-09    4.499e-01    4.495e-01    4.500e-01    9.000e-01  
  8.0000e-09    4.499e-01    4.495e-01    4.500e-01    9.000e-01  
  8.1000e-09    4.499e-01    4.495e-01    4.500e-01    9.000e-01  
  8.2000e-09    4.499e-01    4.495e-01    4.500e-01    9.000e-01  
  8.3000e-09    4.499e-01    4.495e-01    4.500e-01    9.000e-01  
  8.4000e-09    4.499e-01    4.495e-01    4.500e-01    9.000e-01  
  8.5000e-09    4.499e-01    4.495e-01    4.500e-01    9.000e-01  
  8.6000e-09    4.499e-01    4.495e-01    4.500e-01    9.000e-01  
  8.7000e-09    4.499e-01    4.495e-01    4.500e-01    9.000e-01  
  8.8000e-09    4.499e-01    4.495e-01    4.500e-01    9.000e-01  
  8.9000e-09    4.499e-01    4.495e-01    4.500e-01    9.000e-01  
  9.0000e-09    4.499e-01    4.495e-01    4.500e-01    9.000e-01  
  9.1000e-09    4.499e-01    4.495e-01    4.500e-01    9.000e-01  
  9.2000e-09    4.499e-01    4.495e-01    4.500e-01    9.000e-01  
  9.3000e-09    4.499e-01    4.495e-01    4.500e-01    9.000e-01  
  9.4000e-09    4.499e-01    4.495e-01    4.500e-01    9.000e-01  
  9.5000e-09    4.499e-01    4.495e-01    4.500e-01    9.000e-01  
  9.6000e-09    4.499e-01    4.495e-01    4.500e-01    9.000e-01  
  9.7000e-09    4.499e-01    4.495e-01    4.500e-01    9.000e-01  
  9.8000e-09    4.499e-01    4.495e-01    4.500e-01    9.000e-01  
  9.9000e-09    4.499e-01    4.495e-01    4.500e-01    9.000e-01  
  1.0000e-08    4.499e-01    4.495e-01    4.500e-01    9.000e-01  
  1.0100e-08    4.419e-01    4.499e-01    0.000e+00    0.000e+00  
  1.0200e-08    4.495e-01    4.495e-01    0.000e+00    0.000e+00  
  1.0300e-08    4.496e-01    4.496e-01    0.000e+00    0.000e+00  
  1.0400e-08    4.495e-01    4.495e-01    0.000e+00    0.000e+00  
  1.0500e-08    4.495e-01    4.495e-01    0.000e+00    0.000e+00  
  1.0600e-08    4.495e-01    4.495e-01    0.000e+00    0.000e+00  
  1.0700e-08    4.495e-01    4.495e-01    0.000e+00    0.000e+00  
  1.0800e-08    4.495e-01    4.495e-01    0.000e+00    0.000e+00  
  1.0900e-08    4.495e-01    4.495e-01    0.000e+00    0.000e+00  
  1.1000e-08    4.496e-01    4.496e-01    0.000e+00    0.000e+00  
  1.1100e-08    4.496e-01    4.496e-01    0.000e+00    0.000e+00  
  1.1200e-08    4.496e-01    4.496e-01    0.000e+00    0.000e+00  
  1.1300e-08    4.496e-01    4.495e-01    0.000e+00    0.000e+00  
  1.1400e-08    4.495e-01    4.495e-01    0.000e+00    0.000e+00  
  1.1500e-08    4.495e-01    4.495e-01    0.000e+00    0.000e+00  
  1.1600e-08    4.495e-01    4.495e-01    0.000e+00    0.000e+00  
  1.1700e-08    4.495e-01    4.495e-01    0.000e+00    0.000e+00  
  1.1800e-08    4.495e-01    4.495e-01    0.000e+00    0.000e+00  
  1.1900e-08    4.495e-01    4.495e-01    0.000e+00    0.000e+00  
  1.2000e-08    4.495e-01    4.495e-01    0.000e+00    0.000e+00  
  1.2100e-08    4.495e-01    4.495e-01    0.000e+00    0.000e+00  
  1.2200e-08    4.495e-01    4.495e-01    0.000e+00    0.000e+00  
  1.2300e-08    4.495e-01    4.495e-01    0.000e+00    0.000e+00  
  1.2400e-08    4.495e-01    4.495e-01    0.000e+00    0.000e+00  
  1.2500e-08    4.495e-01    4.495e-01    0.000e+00    0.000e+00  
  1.2600e-08    4.495e-01    4.495e-01    0.000e+00    0.000e+00  
  1.2700e-08    4.495e-01    4.495e-01    0.000e+00    0.000e+00  
  1.2800e-08    4.495e-01    4.495e-01    0.000e+00    0.000e+00  
  1.2900e-08    4.495e-01    4.495e-01    0.000e+00    0.000e+00  
  1.3000e-08    4.495e-01    4.495e-01    0.000e+00    0.000e+00  
  1.3100e-08    4.495e-01    4.495e-01    0.000e+00    0.000e+00  
  1.3200e-08    4.495e-01    4.495e-01    0.000e+00    0.000e+00  
  1.3300e-08    4.495e-01    4.495e-01    0.000e+00    0.000e+00  
  1.3400e-08    4.495e-01    4.495e-01    0.000e+00    0.000e+00  
  1.3500e-08    4.495e-01    4.495e-01    0.000e+00    0.000e+00  
  1.3600e-08    4.495e-01    4.495e-01    0.000e+00    0.000e+00  
  1.3700e-08    4.495e-01    4.495e-01    0.000e+00    0.000e+00  
  1.3800e-08    4.495e-01    4.495e-01    0.000e+00    0.000e+00  
  1.3900e-08    4.495e-01    4.495e-01    0.000e+00    0.000e+00  
  1.4000e-08    4.496e-01    4.495e-01    0.000e+00    0.000e+00  
  1.4100e-08    4.496e-01    4.496e-01    0.000e+00    0.000e+00  
  1.4200e-08    4.496e-01    4.496e-01    0.000e+00    0.000e+00  
  1.4300e-08    4.496e-01    4.496e-01    0.000e+00    0.000e+00  
  1.4400e-08    4.496e-01    4.496e-01    0.000e+00    0.000e+00  
  1.4500e-08    4.495e-01    4.495e-01    0.000e+00    0.000e+00  
  1.4600e-08    4.495e-01    4.495e-01    0.000e+00    0.000e+00  
  1.4700e-08    4.495e-01    4.495e-01    0.000e+00    0.000e+00  
  1.4800e-08    4.495e-01    4.495e-01    0.000e+00    0.000e+00  
  1.4900e-08    4.495e-01    4.495e-01    0.000e+00    0.000e+00  
  1.5000e-08    4.495e-01    4.495e-01    0.000e+00    0.000e+00  
  1.5100e-08    4.523e-01    4.494e-01    9.000e-01    0.000e+00  
  1.5200e-08    4.495e-01    4.495e-01    9.000e-01    0.000e+00  
  1.5300e-08    4.495e-01    4.495e-01    9.000e-01    0.000e+00  
  1.5400e-08    4.495e-01    4.495e-01    9.000e-01    0.000e+00  
  1.5500e-08    4.495e-01    4.495e-01    9.000e-01    0.000e+00  
  1.5600e-08    4.495e-01    4.495e-01    9.000e-01    0.000e+00  
  1.5700e-08    4.495e-01    4.495e-01    9.000e-01    0.000e+00  
  1.5800e-08    4.495e-01    4.495e-01    9.000e-01    0.000e+00  
  1.5900e-08    4.495e-01    4.495e-01    9.000e-01    0.000e+00  
  1.6000e-08    4.495e-01    4.495e-01    9.000e-01    0.000e+00  
  1.6100e-08    4.495e-01    4.495e-01    9.000e-01    0.000e+00  
  1.6200e-08    4.495e-01    4.495e-01    9.000e-01    0.000e+00  
  1.6300e-08    4.495e-01    4.495e-01    9.000e-01    0.000e+00  
  1.6400e-08    4.495e-01    4.495e-01    9.000e-01    0.000e+00  
  1.6500e-08    4.495e-01    4.495e-01    9.000e-01    0.000e+00  
  1.6600e-08    4.495e-01    4.495e-01    9.000e-01    0.000e+00  
  1.6700e-08    4.495e-01    4.495e-01    9.000e-01    0.000e+00  
  1.6800e-08    4.495e-01    4.495e-01    9.000e-01    0.000e+00  
  1.6900e-08    4.495e-01    4.495e-01    9.000e-01    0.000e+00  
  1.7000e-08    4.495e-01    4.495e-01    9.000e-01    0.000e+00  
  1.7100e-08    4.495e-01    4.495e-01    9.000e-01    0.000e+00  
  1.7200e-08    4.495e-01    4.495e-01    9.000e-01    0.000e+00  
  1.7300e-08    4.495e-01    4.495e-01    9.000e-01    0.000e+00  
  1.7400e-08    4.495e-01    4.495e-01    9.000e-01    0.000e+00  
  1.7500e-08    4.495e-01    4.495e-01    9.000e-01    0.000e+00  
  1.7600e-08    8.958e-01    1.325e-02    9.000e-01    9.000e-01  
  1.7700e-08    8.999e-01    7.723e-04    9.000e-01    9.000e-01  
  1.7800e-08    8.992e-01    5.881e-03    9.000e-01    9.000e-01  
  1.7900e-08    9.000e-01    1.061e-04    9.000e-01    9.000e-01  
  1.8000e-08    9.001e-01    3.588e-04    9.000e-01    9.000e-01  
  1.8100e-08    8.998e-01   -2.705e-04    9.000e-01    9.000e-01  
  1.8200e-08    9.000e-01    1.479e-04    9.000e-01    9.000e-01  
  1.8300e-08    9.001e-01    2.334e-04    9.000e-01    9.000e-01  
  1.8400e-08    9.000e-01   -5.260e-05    9.000e-01    9.000e-01  
  1.8500e-08    8.999e-01   -2.547e-04    9.000e-01    9.000e-01  
  1.8600e-08    8.999e-01   -6.631e-05    9.000e-01    9.000e-01  
  1.8700e-08    9.000e-01    1.221e-04    9.000e-01    9.000e-01  
  1.8800e-08    9.001e-01    3.104e-04    9.000e-01    9.000e-01  
  1.8900e-08    9.001e-01    2.590e-04    9.000e-01    9.000e-01  
  1.9000e-08    9.000e-01    1.313e-04    9.000e-01    9.000e-01  
  1.9100e-08    9.000e-01    3.589e-06    9.000e-01    9.000e-01  
  1.9200e-08    8.999e-01   -1.241e-04    9.000e-01    9.000e-01  
  1.9300e-08    8.999e-01   -2.518e-04    9.000e-01    9.000e-01  
  1.9400e-08    8.999e-01   -2.311e-04    9.000e-01    9.000e-01  
  1.9500e-08    8.999e-01   -1.342e-04    9.000e-01    9.000e-01  
  1.9600e-08    9.000e-01   -3.732e-05    9.000e-01    9.000e-01  
  1.9700e-08    9.000e-01    5.955e-05    9.000e-01    9.000e-01  
  1.9800e-08    9.001e-01    1.564e-04    9.000e-01    9.000e-01  
  1.9900e-08    9.001e-01    2.533e-04    9.000e-01    9.000e-01  
  2.0000e-08    9.001e-01    3.502e-04    9.000e-01    9.000e-01  
  2.0100e-08    8.949e-01    1.087e-03    0.000e+00    0.000e+00  
  2.0200e-08    8.999e-01    8.876e-06    0.000e+00    0.000e+00  
  2.0300e-08    8.999e-01    3.015e-05    0.000e+00    0.000e+00  
  2.0400e-08    8.999e-01    2.111e-05    0.000e+00    0.000e+00  
  2.0500e-08    8.999e-01    2.505e-05    0.000e+00    0.000e+00  
  2.0600e-08    8.998e-01    2.898e-05    0.000e+00    0.000e+00  
  2.0700e-08    8.998e-01    2.959e-05    0.000e+00    0.000e+00  
  2.0800e-08    8.999e-01    2.862e-05    0.000e+00    0.000e+00  
  2.0900e-08    8.999e-01    2.765e-05    0.000e+00    0.000e+00  
  2.1000e-08    8.999e-01    2.667e-05    0.000e+00    0.000e+00  
  2.1100e-08    8.999e-01    2.570e-05    0.000e+00    0.000e+00  
  2.1200e-08    8.999e-01    2.473e-05    0.000e+00    0.000e+00  
  2.1300e-08    8.999e-01    2.376e-05    0.000e+00    0.000e+00  
  2.1400e-08    8.999e-01    2.279e-05    0.000e+00    0.000e+00  
  2.1500e-08    8.999e-01    2.202e-05    0.000e+00    0.000e+00  
  2.1600e-08    8.999e-01    2.234e-05    0.000e+00    0.000e+00  
  2.1700e-08    8.999e-01    2.265e-05    0.000e+00    0.000e+00  
  2.1800e-08    8.999e-01    2.297e-05    0.000e+00    0.000e+00  
  2.1900e-08    8.999e-01    2.329e-05    0.000e+00    0.000e+00  
  2.2000e-08    8.999e-01    2.361e-05    0.000e+00    0.000e+00  
  2.2100e-08    8.999e-01    2.392e-05    0.000e+00    0.000e+00  
  2.2200e-08    8.999e-01    2.424e-05    0.000e+00    0.000e+00  
  2.2300e-08    8.999e-01    2.456e-05    0.000e+00    0.000e+00  
  2.2400e-08    8.999e-01    2.488e-05    0.000e+00    0.000e+00  
  2.2500e-08    8.999e-01    2.519e-05    0.000e+00    0.000e+00  
  2.2600e-08    8.999e-01    2.551e-05    0.000e+00    0.000e+00  
  2.2700e-08    8.999e-01    2.583e-05    0.000e+00    0.000e+00  
  2.2800e-08    8.999e-01    2.615e-05    0.000e+00    0.000e+00  
  2.2900e-08    8.999e-01    2.646e-05    0.000e+00    0.000e+00  
  2.3000e-08    8.999e-01    2.678e-05    0.000e+00    0.000e+00  
  2.3100e-08    8.999e-01    2.710e-05    0.000e+00    0.000e+00  
  2.3200e-08    8.999e-01    2.741e-05    0.000e+00    0.000e+00  
  2.3300e-08    8.998e-01    2.773e-05    0.000e+00    0.000e+00  
  2.3400e-08    8.998e-01    2.805e-05    0.000e+00    0.000e+00  
  2.3500e-08    8.998e-01    2.827e-05    0.000e+00    0.000e+00  
  2.3600e-08    8.998e-01    2.795e-05    0.000e+00    0.000e+00  
  2.3700e-08    8.998e-01    2.764e-05    0.000e+00    0.000e+00  
  2.3800e-08    8.999e-01    2.732e-05    0.000e+00    0.000e+00  
  2.3900e-08    8.999e-01    2.701e-05    0.000e+00    0.000e+00  
  2.4000e-08    8.999e-01    2.669e-05    0.000e+00    0.000e+00  
  2.4100e-08    8.999e-01    2.638e-05    0.000e+00    0.000e+00  
  2.4200e-08    8.999e-01    2.606e-05    0.000e+00    0.000e+00  
  2.4300e-08    8.999e-01    2.574e-05    0.000e+00    0.000e+00  
  2.4400e-08    8.999e-01    2.543e-05    0.000e+00    0.000e+00  
  2.4500e-08    8.999e-01    2.511e-05    0.000e+00    0.000e+00  
  2.4600e-08    8.999e-01    2.480e-05    0.000e+00    0.000e+00  
  2.4700e-08    8.999e-01    2.448e-05    0.000e+00    0.000e+00  
  2.4800e-08    8.999e-01    2.417e-05    0.000e+00    0.000e+00  
  2.4900e-08    8.999e-01    2.385e-05    0.000e+00    0.000e+00  
  2.5000e-08    8.999e-01    2.354e-05    0.000e+00    0.000e+00  
  2.5100e-08    8.999e-01    2.322e-05    0.000e+00    0.000e+00  
  2.5200e-08    8.999e-01    2.291e-05    0.000e+00    0.000e+00  
  2.5300e-08    8.999e-01    2.259e-05    0.000e+00    0.000e+00  
  2.5400e-08    8.999e-01    2.227e-05    0.000e+00    0.000e+00  
  2.5500e-08    8.999e-01    2.205e-05    0.000e+00    0.000e+00  
  2.5600e-08    8.999e-01    2.234e-05    0.000e+00    0.000e+00  
  2.5700e-08    8.999e-01    2.263e-05    0.000e+00    0.000e+00  
  2.5800e-08    8.999e-01    2.291e-05    0.000e+00    0.000e+00  
  2.5900e-08    8.999e-01    2.320e-05    0.000e+00    0.000e+00  
  2.6000e-08    8.999e-01    2.349e-05    0.000e+00    0.000e+00  
  2.6100e-08    8.999e-01    2.377e-05    0.000e+00    0.000e+00  
  2.6200e-08    8.999e-01    2.406e-05    0.000e+00    0.000e+00  
  2.6300e-08    8.999e-01    2.435e-05    0.000e+00    0.000e+00  
  2.6400e-08    8.999e-01    2.463e-05    0.000e+00    0.000e+00  
  2.6500e-08    8.999e-01    2.492e-05    0.000e+00    0.000e+00  
  2.6600e-08    8.999e-01    2.521e-05    0.000e+00    0.000e+00  
  2.6700e-08    8.999e-01    2.550e-05    0.000e+00    0.000e+00  
  2.6800e-08    8.999e-01    2.578e-05    0.000e+00    0.000e+00  
  2.6900e-08    8.999e-01    2.607e-05    0.000e+00    0.000e+00  
  2.7000e-08    8.999e-01    2.636e-05    0.000e+00    0.000e+00  
  2.7100e-08    8.999e-01    2.664e-05    0.000e+00    0.000e+00  
  2.7200e-08    8.999e-01    2.693e-05    0.000e+00    0.000e+00  
  2.7300e-08    8.998e-01    2.722e-05    0.000e+00    0.000e+00  
  2.7400e-08    8.998e-01    2.750e-05    0.000e+00    0.000e+00  
  2.7500e-08    8.998e-01    2.779e-05    0.000e+00    0.000e+00  
  2.7600e-08    2.636e-01   -1.687e-01    0.000e+00    9.000e-01  
  2.7700e-08    4.318e-03    8.622e-01    0.000e+00    9.000e-01  
  2.7800e-08    6.102e-05    8.998e-01    0.000e+00    9.000e-01  
  2.7900e-08    3.158e-05    8.999e-01    0.000e+00    9.000e-01  
  2.8000e-08    3.681e-05    8.999e-01    0.000e+00    9.000e-01  
  2.8100e-08    1.479e-05    9.000e-01    0.000e+00    9.000e-01  
  2.8200e-08    9.762e-06    9.000e-01    0.000e+00    9.000e-01  
  2.8300e-08    3.069e-05    9.000e-01    0.000e+00    9.000e-01  
  2.8400e-08    2.033e-05    9.000e-01    0.000e+00    9.000e-01  
  2.8500e-08    2.624e-06    9.000e-01    0.000e+00    9.000e-01  
  2.8600e-08   -2.062e-06    9.000e-01    0.000e+00    9.000e-01  
  2.8700e-08    9.623e-06    9.000e-01    0.000e+00    9.000e-01  
  2.8800e-08    2.131e-05    9.000e-01    0.000e+00    9.000e-01  
  2.8900e-08    2.868e-05    9.000e-01    0.000e+00    9.000e-01  
  2.9000e-08    1.955e-05    9.000e-01    0.000e+00    9.000e-01  
  2.9100e-08    1.043e-05    9.000e-01    0.000e+00    9.000e-01  
  2.9200e-08    1.306e-06    9.000e-01    0.000e+00    9.000e-01  
  2.9300e-08   -7.818e-06    9.000e-01    0.000e+00    9.000e-01  
  2.9400e-08   -4.784e-06    9.000e-01    0.000e+00    9.000e-01  
  2.9500e-08    1.594e-06    9.000e-01    0.000e+00    9.000e-01  
  2.9600e-08    7.972e-06    9.000e-01    0.000e+00    9.000e-01  
  2.9700e-08    1.435e-05    9.000e-01    0.000e+00    9.000e-01  
  2.9800e-08    2.073e-05    9.000e-01    0.000e+00    9.000e-01  
  2.9900e-08    2.711e-05    9.000e-01    0.000e+00    9.000e-01  
  3.0000e-08   -1.015e-05    9.000e-01    0.000e+00    9.000e-01  
  3.0100e-08   -4.322e-03    9.002e-01    0.000e+00    0.000e+00  
  3.0200e-08   -1.685e-05    9.000e-01    0.000e+00    0.000e+00  
  3.0300e-08    6.348e-05    9.000e-01    0.000e+00    0.000e+00  
  3.0400e-08    3.291e-05    9.000e-01    0.000e+00    0.000e+00  
  3.0500e-08    2.336e-06    9.000e-01    0.000e+00    0.000e+00  
  3.0600e-08   -9.711e-07    9.000e-01    0.000e+00    0.000e+00  
  3.0700e-08    8.727e-06    9.000e-01    0.000e+00    0.000e+00  
  3.0800e-08    1.842e-05    9.000e-01    0.000e+00    0.000e+00  
  3.0900e-08    2.812e-05    9.000e-01    0.000e+00    0.000e+00  
  3.1000e-08    3.782e-05    9.000e-01    0.000e+00    0.000e+00  
  3.1100e-08    4.752e-05    9.000e-01    0.000e+00    0.000e+00  
  3.1200e-08    5.722e-05    9.000e-01    0.000e+00    0.000e+00  
  3.1300e-08    5.449e-05    9.000e-01    0.000e+00    0.000e+00  
  3.1400e-08    5.053e-05    9.000e-01    0.000e+00    0.000e+00  
  3.1500e-08    4.658e-05    9.000e-01    0.000e+00    0.000e+00  
  3.1600e-08    4.262e-05    9.000e-01    0.000e+00    0.000e+00  
  3.1700e-08    3.867e-05    9.000e-01    0.000e+00    0.000e+00  
  3.1800e-08    3.471e-05    9.000e-01    0.000e+00    0.000e+00  
  3.1900e-08    3.076e-05    9.000e-01    0.000e+00    0.000e+00  
  3.2000e-08    2.680e-05    9.000e-01    0.000e+00    0.000e+00  
  3.2100e-08    2.285e-05    9.000e-01    0.000e+00    0.000e+00  
  3.2200e-08    1.889e-05    9.000e-01    0.000e+00    0.000e+00  
  3.2300e-08    1.494e-05    9.000e-01    0.000e+00    0.000e+00  
  3.2400e-08    1.098e-05    9.000e-01    0.000e+00    0.000e+00  
  3.2500e-08    7.028e-06    9.000e-01    0.000e+00    0.000e+00  
  3.2600e-08    3.073e-06    9.000e-01    0.000e+00    0.000e+00  
  3.2700e-08   -8.823e-07    9.000e-01    0.000e+00    0.000e+00  
  3.2800e-08   -4.837e-06    9.000e-01    0.000e+00    0.000e+00  
  3.2900e-08   -5.441e-06    9.000e-01    0.000e+00    0.000e+00  
  3.3000e-08   -2.259e-06    9.000e-01    0.000e+00    0.000e+00  
  3.3100e-08    9.222e-07    9.000e-01    0.000e+00    0.000e+00  
  3.3200e-08    4.104e-06    9.000e-01    0.000e+00    0.000e+00  
  3.3300e-08    7.286e-06    9.000e-01    0.000e+00    0.000e+00  
  3.3400e-08    1.047e-05    9.000e-01    0.000e+00    0.000e+00  
  3.3500e-08    1.365e-05    9.000e-01    0.000e+00    0.000e+00  
  3.3600e-08    1.683e-05    9.000e-01    0.000e+00    0.000e+00  
  3.3700e-08    2.001e-05    9.000e-01    0.000e+00    0.000e+00  
  3.3800e-08    2.319e-05    9.000e-01    0.000e+00    0.000e+00  
  3.3900e-08    2.638e-05    9.000e-01    0.000e+00    0.000e+00  
  3.4000e-08    2.956e-05    9.000e-01    0.000e+00    0.000e+00  
  3.4100e-08    3.274e-05    9.000e-01    0.000e+00    0.000e+00  
  3.4200e-08    3.592e-05    9.000e-01    0.000e+00    0.000e+00  
  3.4300e-08    3.910e-05    9.000e-01    0.000e+00    0.000e+00  
  3.4400e-08    4.228e-05    9.000e-01    0.000e+00    0.000e+00  
  3.4500e-08    4.547e-05    9.000e-01    0.000e+00    0.000e+00  
  3.4600e-08    4.865e-05    9.000e-01    0.000e+00    0.000e+00  
  3.4700e-08    5.183e-05    9.000e-01    0.000e+00    0.000e+00  
  3.4800e-08    5.501e-05    9.000e-01    0.000e+00    0.000e+00  
  3.4900e-08    5.522e-05    9.000e-01    0.000e+00    0.000e+00  
  3.5000e-08    5.207e-05    9.000e-01    0.000e+00    0.000e+00  
  3.5100e-08    4.892e-05    9.000e-01    0.000e+00    0.000e+00  
  3.5200e-08    4.577e-05    9.000e-01    0.000e+00    0.000e+00  
  3.5300e-08    4.262e-05    9.000e-01    0.000e+00    0.000e+00  
  3.5400e-08    3.947e-05    9.000e-01    0.000e+00    0.000e+00  
  3.5500e-08    3.632e-05    9.000e-01    0.000e+00    0.000e+00  
  3.5600e-08    3.317e-05    9.000e-01    0.000e+00    0.000e+00  
  3.5700e-08    3.002e-05    9.000e-01    0.000e+00    0.000e+00  
  3.5800e-08    2.687e-05    9.000e-01    0.000e+00    0.000e+00  
  3.5900e-08    2.372e-05    9.000e-01    0.000e+00    0.000e+00  
  3.6000e-08    2.057e-05    9.000e-01    0.000e+00    0.000e+00  
  3.6100e-08    1.742e-05    9.000e-01    0.000e+00    0.000e+00  
  3.6200e-08    1.427e-05    9.000e-01    0.000e+00    0.000e+00  
  3.6300e-08    1.112e-05    9.000e-01    0.000e+00    0.000e+00  
  3.6400e-08    7.968e-06    9.000e-01    0.000e+00    0.000e+00  
  3.6500e-08    4.818e-06    9.000e-01    0.000e+00    0.000e+00  
  3.6600e-08    1.668e-06    9.000e-01    0.000e+00    0.000e+00  
  3.6700e-08   -1.483e-06    9.000e-01    0.000e+00    0.000e+00  
  3.6800e-08   -4.633e-06    9.000e-01    0.000e+00    0.000e+00  
  3.6900e-08   -4.842e-06    9.000e-01    0.000e+00    0.000e+00  
  3.7000e-08   -1.728e-06    9.000e-01    0.000e+00    0.000e+00  
  3.7100e-08    1.386e-06    9.000e-01    0.000e+00    0.000e+00  
  3.7200e-08    4.500e-06    9.000e-01    0.000e+00    0.000e+00  
  3.7300e-08    7.613e-06    9.000e-01    0.000e+00    0.000e+00  
  3.7400e-08    1.073e-05    9.000e-01    0.000e+00    0.000e+00  
  3.7500e-08    1.384e-05    9.000e-01    0.000e+00    0.000e+00  
  3.7600e-08    1.695e-05    9.000e-01    0.000e+00    0.000e+00  
  3.7700e-08    2.007e-05    9.000e-01    0.000e+00    0.000e+00  
  3.7800e-08    2.318e-05    9.000e-01    0.000e+00    0.000e+00  
  3.7900e-08    2.630e-05    9.000e-01    0.000e+00    0.000e+00  
  3.8000e-08    2.941e-05    9.000e-01    0.000e+00    0.000e+00  
  3.8100e-08    3.252e-05    9.000e-01    0.000e+00    0.000e+00  
  3.8200e-08    3.564e-05    9.000e-01    0.000e+00    0.000e+00  
  3.8300e-08    3.875e-05    9.000e-01    0.000e+00    0.000e+00  
  3.8400e-08    4.186e-05    9.000e-01    0.000e+00    0.000e+00  
  3.8500e-08    4.498e-05    9.000e-01    0.000e+00    0.000e+00  
  3.8600e-08    4.809e-05    9.000e-01    0.000e+00    0.000e+00  
  3.8700e-08    5.121e-05    9.000e-01    0.000e+00    0.000e+00  
  3.8800e-08    5.432e-05    9.000e-01    0.000e+00    0.000e+00  
  3.8900e-08    5.346e-05    9.000e-01    0.000e+00    0.000e+00  
  3.9000e-08    4.812e-05    9.000e-01    0.000e+00    0.000e+00  
  3.9100e-08    4.277e-05    9.000e-01    0.000e+00    0.000e+00  
  3.9200e-08    3.743e-05    9.000e-01    0.000e+00    0.000e+00  
  3.9300e-08    3.208e-05    9.000e-01    0.000e+00    0.000e+00  
  3.9400e-08    2.674e-05    9.000e-01    0.000e+00    0.000e+00  
  3.9500e-08    2.139e-05    9.000e-01    0.000e+00    0.000e+00  
  3.9600e-08    1.605e-05    9.000e-01    0.000e+00    0.000e+00  
  3.9700e-08    1.070e-05    9.000e-01    0.000e+00    0.000e+00  
  3.9800e-08    5.355e-06    9.000e-01    0.000e+00    0.000e+00  
  3.9900e-08    0.000e+00    9.000e-01    0.000e+00    0.000e+00  
  4.0000e-08   -5.335e-06    9.000e-01    0.000e+00    0.000e+00  
y
x

        time    voltage    
                   wwlb    
  0.0000e+00    9.000e-01  
  1.0000e-10    9.000e-01  
  2.0000e-10    9.000e-01  
  3.0000e-10    9.000e-01  
  4.0000e-10    9.000e-01  
  5.0000e-10    9.000e-01  
  6.0000e-10    9.000e-01  
  7.0000e-10    9.000e-01  
  8.0000e-10    9.000e-01  
  9.0000e-10    9.000e-01  
  1.0000e-09    9.000e-01  
  1.1000e-09    9.000e-01  
  1.2000e-09    9.000e-01  
  1.3000e-09    9.000e-01  
  1.4000e-09    9.000e-01  
  1.5000e-09    9.000e-01  
  1.6000e-09    9.000e-01  
  1.7000e-09    9.000e-01  
  1.8000e-09    9.000e-01  
  1.9000e-09    9.000e-01  
  2.0000e-09    9.000e-01  
  2.1000e-09    9.000e-01  
  2.2000e-09    9.000e-01  
  2.3000e-09    9.000e-01  
  2.4000e-09    9.000e-01  
  2.5000e-09    9.000e-01  
  2.6000e-09    9.000e-01  
  2.7000e-09    9.000e-01  
  2.8000e-09    9.000e-01  
  2.9000e-09    9.000e-01  
  3.0000e-09    9.000e-01  
  3.1000e-09    9.000e-01  
  3.2000e-09    9.000e-01  
  3.3000e-09    9.000e-01  
  3.4000e-09    9.000e-01  
  3.5000e-09    9.000e-01  
  3.6000e-09    9.000e-01  
  3.7000e-09    9.000e-01  
  3.8000e-09    9.000e-01  
  3.9000e-09    9.000e-01  
  4.0000e-09    9.000e-01  
  4.1000e-09    9.000e-01  
  4.2000e-09    9.000e-01  
  4.3000e-09    9.000e-01  
  4.4000e-09    9.000e-01  
  4.5000e-09    9.000e-01  
  4.6000e-09    9.000e-01  
  4.7000e-09    9.000e-01  
  4.8000e-09    9.000e-01  
  4.9000e-09    9.000e-01  
  5.0000e-09    9.000e-01  
  5.1000e-09    9.000e-01  
  5.2000e-09    9.000e-01  
  5.3000e-09    9.000e-01  
  5.4000e-09    9.000e-01  
  5.5000e-09    9.000e-01  
  5.6000e-09    9.000e-01  
  5.7000e-09    9.000e-01  
  5.8000e-09    9.000e-01  
  5.9000e-09    9.000e-01  
  6.0000e-09    9.000e-01  
  6.1000e-09    9.000e-01  
  6.2000e-09    9.000e-01  
  6.3000e-09    9.000e-01  
  6.4000e-09    9.000e-01  
  6.5000e-09    9.000e-01  
  6.6000e-09    9.000e-01  
  6.7000e-09    9.000e-01  
  6.8000e-09    9.000e-01  
  6.9000e-09    9.000e-01  
  7.0000e-09    9.000e-01  
  7.1000e-09    9.000e-01  
  7.2000e-09    9.000e-01  
  7.3000e-09    9.000e-01  
  7.4000e-09    9.000e-01  
  7.5000e-09    9.000e-01  
  7.6000e-09    0.000e+00  
  7.7000e-09    0.000e+00  
  7.8000e-09    0.000e+00  
  7.9000e-09    0.000e+00  
  8.0000e-09    0.000e+00  
  8.1000e-09    0.000e+00  
  8.2000e-09    0.000e+00  
  8.3000e-09    0.000e+00  
  8.4000e-09    0.000e+00  
  8.5000e-09    0.000e+00  
  8.6000e-09    0.000e+00  
  8.7000e-09    0.000e+00  
  8.8000e-09    0.000e+00  
  8.9000e-09    0.000e+00  
  9.0000e-09    0.000e+00  
  9.1000e-09    0.000e+00  
  9.2000e-09    0.000e+00  
  9.3000e-09    0.000e+00  
  9.4000e-09    0.000e+00  
  9.5000e-09    0.000e+00  
  9.6000e-09    0.000e+00  
  9.7000e-09    0.000e+00  
  9.8000e-09    0.000e+00  
  9.9000e-09    0.000e+00  
  1.0000e-08    0.000e+00  
  1.0100e-08    9.000e-01  
  1.0200e-08    9.000e-01  
  1.0300e-08    9.000e-01  
  1.0400e-08    9.000e-01  
  1.0500e-08    9.000e-01  
  1.0600e-08    9.000e-01  
  1.0700e-08    9.000e-01  
  1.0800e-08    9.000e-01  
  1.0900e-08    9.000e-01  
  1.1000e-08    9.000e-01  
  1.1100e-08    9.000e-01  
  1.1200e-08    9.000e-01  
  1.1300e-08    9.000e-01  
  1.1400e-08    9.000e-01  
  1.1500e-08    9.000e-01  
  1.1600e-08    9.000e-01  
  1.1700e-08    9.000e-01  
  1.1800e-08    9.000e-01  
  1.1900e-08    9.000e-01  
  1.2000e-08    9.000e-01  
  1.2100e-08    9.000e-01  
  1.2200e-08    9.000e-01  
  1.2300e-08    9.000e-01  
  1.2400e-08    9.000e-01  
  1.2500e-08    9.000e-01  
  1.2600e-08    9.000e-01  
  1.2700e-08    9.000e-01  
  1.2800e-08    9.000e-01  
  1.2900e-08    9.000e-01  
  1.3000e-08    9.000e-01  
  1.3100e-08    9.000e-01  
  1.3200e-08    9.000e-01  
  1.3300e-08    9.000e-01  
  1.3400e-08    9.000e-01  
  1.3500e-08    9.000e-01  
  1.3600e-08    9.000e-01  
  1.3700e-08    9.000e-01  
  1.3800e-08    9.000e-01  
  1.3900e-08    9.000e-01  
  1.4000e-08    9.000e-01  
  1.4100e-08    9.000e-01  
  1.4200e-08    9.000e-01  
  1.4300e-08    9.000e-01  
  1.4400e-08    9.000e-01  
  1.4500e-08    9.000e-01  
  1.4600e-08    9.000e-01  
  1.4700e-08    9.000e-01  
  1.4800e-08    9.000e-01  
  1.4900e-08    9.000e-01  
  1.5000e-08    9.000e-01  
  1.5100e-08    9.000e-01  
  1.5200e-08    9.000e-01  
  1.5300e-08    9.000e-01  
  1.5400e-08    9.000e-01  
  1.5500e-08    9.000e-01  
  1.5600e-08    9.000e-01  
  1.5700e-08    9.000e-01  
  1.5800e-08    9.000e-01  
  1.5900e-08    9.000e-01  
  1.6000e-08    9.000e-01  
  1.6100e-08    9.000e-01  
  1.6200e-08    9.000e-01  
  1.6300e-08    9.000e-01  
  1.6400e-08    9.000e-01  
  1.6500e-08    9.000e-01  
  1.6600e-08    9.000e-01  
  1.6700e-08    9.000e-01  
  1.6800e-08    9.000e-01  
  1.6900e-08    9.000e-01  
  1.7000e-08    9.000e-01  
  1.7100e-08    9.000e-01  
  1.7200e-08    9.000e-01  
  1.7300e-08    9.000e-01  
  1.7400e-08    9.000e-01  
  1.7500e-08    9.000e-01  
  1.7600e-08    0.000e+00  
  1.7700e-08    0.000e+00  
  1.7800e-08    0.000e+00  
  1.7900e-08    0.000e+00  
  1.8000e-08    0.000e+00  
  1.8100e-08    0.000e+00  
  1.8200e-08    0.000e+00  
  1.8300e-08    0.000e+00  
  1.8400e-08    0.000e+00  
  1.8500e-08    0.000e+00  
  1.8600e-08    0.000e+00  
  1.8700e-08    0.000e+00  
  1.8800e-08    0.000e+00  
  1.8900e-08    0.000e+00  
  1.9000e-08    0.000e+00  
  1.9100e-08    0.000e+00  
  1.9200e-08    0.000e+00  
  1.9300e-08    0.000e+00  
  1.9400e-08    0.000e+00  
  1.9500e-08    0.000e+00  
  1.9600e-08    0.000e+00  
  1.9700e-08    0.000e+00  
  1.9800e-08    0.000e+00  
  1.9900e-08    0.000e+00  
  2.0000e-08    0.000e+00  
  2.0100e-08    9.000e-01  
  2.0200e-08    9.000e-01  
  2.0300e-08    9.000e-01  
  2.0400e-08    9.000e-01  
  2.0500e-08    9.000e-01  
  2.0600e-08    9.000e-01  
  2.0700e-08    9.000e-01  
  2.0800e-08    9.000e-01  
  2.0900e-08    9.000e-01  
  2.1000e-08    9.000e-01  
  2.1100e-08    9.000e-01  
  2.1200e-08    9.000e-01  
  2.1300e-08    9.000e-01  
  2.1400e-08    9.000e-01  
  2.1500e-08    9.000e-01  
  2.1600e-08    9.000e-01  
  2.1700e-08    9.000e-01  
  2.1800e-08    9.000e-01  
  2.1900e-08    9.000e-01  
  2.2000e-08    9.000e-01  
  2.2100e-08    9.000e-01  
  2.2200e-08    9.000e-01  
  2.2300e-08    9.000e-01  
  2.2400e-08    9.000e-01  
  2.2500e-08    9.000e-01  
  2.2600e-08    9.000e-01  
  2.2700e-08    9.000e-01  
  2.2800e-08    9.000e-01  
  2.2900e-08    9.000e-01  
  2.3000e-08    9.000e-01  
  2.3100e-08    9.000e-01  
  2.3200e-08    9.000e-01  
  2.3300e-08    9.000e-01  
  2.3400e-08    9.000e-01  
  2.3500e-08    9.000e-01  
  2.3600e-08    9.000e-01  
  2.3700e-08    9.000e-01  
  2.3800e-08    9.000e-01  
  2.3900e-08    9.000e-01  
  2.4000e-08    9.000e-01  
  2.4100e-08    9.000e-01  
  2.4200e-08    9.000e-01  
  2.4300e-08    9.000e-01  
  2.4400e-08    9.000e-01  
  2.4500e-08    9.000e-01  
  2.4600e-08    9.000e-01  
  2.4700e-08    9.000e-01  
  2.4800e-08    9.000e-01  
  2.4900e-08    9.000e-01  
  2.5000e-08    9.000e-01  
  2.5100e-08    9.000e-01  
  2.5200e-08    9.000e-01  
  2.5300e-08    9.000e-01  
  2.5400e-08    9.000e-01  
  2.5500e-08    9.000e-01  
  2.5600e-08    9.000e-01  
  2.5700e-08    9.000e-01  
  2.5800e-08    9.000e-01  
  2.5900e-08    9.000e-01  
  2.6000e-08    9.000e-01  
  2.6100e-08    9.000e-01  
  2.6200e-08    9.000e-01  
  2.6300e-08    9.000e-01  
  2.6400e-08    9.000e-01  
  2.6500e-08    9.000e-01  
  2.6600e-08    9.000e-01  
  2.6700e-08    9.000e-01  
  2.6800e-08    9.000e-01  
  2.6900e-08    9.000e-01  
  2.7000e-08    9.000e-01  
  2.7100e-08    9.000e-01  
  2.7200e-08    9.000e-01  
  2.7300e-08    9.000e-01  
  2.7400e-08    9.000e-01  
  2.7500e-08    9.000e-01  
  2.7600e-08    0.000e+00  
  2.7700e-08    0.000e+00  
  2.7800e-08    0.000e+00  
  2.7900e-08    0.000e+00  
  2.8000e-08    0.000e+00  
  2.8100e-08    0.000e+00  
  2.8200e-08    0.000e+00  
  2.8300e-08    0.000e+00  
  2.8400e-08    0.000e+00  
  2.8500e-08    0.000e+00  
  2.8600e-08    0.000e+00  
  2.8700e-08    0.000e+00  
  2.8800e-08    0.000e+00  
  2.8900e-08    0.000e+00  
  2.9000e-08    0.000e+00  
  2.9100e-08    0.000e+00  
  2.9200e-08    0.000e+00  
  2.9300e-08    0.000e+00  
  2.9400e-08    0.000e+00  
  2.9500e-08    0.000e+00  
  2.9600e-08    0.000e+00  
  2.9700e-08    0.000e+00  
  2.9800e-08    0.000e+00  
  2.9900e-08    0.000e+00  
  3.0000e-08    0.000e+00  
  3.0100e-08    9.000e-01  
  3.0200e-08    9.000e-01  
  3.0300e-08    9.000e-01  
  3.0400e-08    9.000e-01  
  3.0500e-08    9.000e-01  
  3.0600e-08    9.000e-01  
  3.0700e-08    9.000e-01  
  3.0800e-08    9.000e-01  
  3.0900e-08    9.000e-01  
  3.1000e-08    9.000e-01  
  3.1100e-08    9.000e-01  
  3.1200e-08    9.000e-01  
  3.1300e-08    9.000e-01  
  3.1400e-08    9.000e-01  
  3.1500e-08    9.000e-01  
  3.1600e-08    9.000e-01  
  3.1700e-08    9.000e-01  
  3.1800e-08    9.000e-01  
  3.1900e-08    9.000e-01  
  3.2000e-08    9.000e-01  
  3.2100e-08    9.000e-01  
  3.2200e-08    9.000e-01  
  3.2300e-08    9.000e-01  
  3.2400e-08    9.000e-01  
  3.2500e-08    9.000e-01  
  3.2600e-08    9.000e-01  
  3.2700e-08    9.000e-01  
  3.2800e-08    9.000e-01  
  3.2900e-08    9.000e-01  
  3.3000e-08    9.000e-01  
  3.3100e-08    9.000e-01  
  3.3200e-08    9.000e-01  
  3.3300e-08    9.000e-01  
  3.3400e-08    9.000e-01  
  3.3500e-08    9.000e-01  
  3.3600e-08    9.000e-01  
  3.3700e-08    9.000e-01  
  3.3800e-08    9.000e-01  
  3.3900e-08    9.000e-01  
  3.4000e-08    9.000e-01  
  3.4100e-08    9.000e-01  
  3.4200e-08    9.000e-01  
  3.4300e-08    9.000e-01  
  3.4400e-08    9.000e-01  
  3.4500e-08    9.000e-01  
  3.4600e-08    9.000e-01  
  3.4700e-08    9.000e-01  
  3.4800e-08    9.000e-01  
  3.4900e-08    9.000e-01  
  3.5000e-08    9.000e-01  
  3.5100e-08    9.000e-01  
  3.5200e-08    9.000e-01  
  3.5300e-08    9.000e-01  
  3.5400e-08    9.000e-01  
  3.5500e-08    9.000e-01  
  3.5600e-08    9.000e-01  
  3.5700e-08    9.000e-01  
  3.5800e-08    9.000e-01  
  3.5900e-08    9.000e-01  
  3.6000e-08    9.000e-01  
  3.6100e-08    9.000e-01  
  3.6200e-08    9.000e-01  
  3.6300e-08    9.000e-01  
  3.6400e-08    9.000e-01  
  3.6500e-08    9.000e-01  
  3.6600e-08    9.000e-01  
  3.6700e-08    9.000e-01  
  3.6800e-08    9.000e-01  
  3.6900e-08    9.000e-01  
  3.7000e-08    9.000e-01  
  3.7100e-08    9.000e-01  
  3.7200e-08    9.000e-01  
  3.7300e-08    9.000e-01  
  3.7400e-08    9.000e-01  
  3.7500e-08    9.000e-01  
  3.7600e-08    9.000e-01  
  3.7700e-08    9.000e-01  
  3.7800e-08    9.000e-01  
  3.7900e-08    9.000e-01  
  3.8000e-08    9.000e-01  
  3.8100e-08    9.000e-01  
  3.8200e-08    9.000e-01  
  3.8300e-08    9.000e-01  
  3.8400e-08    9.000e-01  
  3.8500e-08    9.000e-01  
  3.8600e-08    9.000e-01  
  3.8700e-08    9.000e-01  
  3.8800e-08    9.000e-01  
  3.8900e-08    9.000e-01  
  3.9000e-08    9.000e-01  
  3.9100e-08    9.000e-01  
  3.9200e-08    9.000e-01  
  3.9300e-08    9.000e-01  
  3.9400e-08    9.000e-01  
  3.9500e-08    9.000e-01  
  3.9600e-08    9.000e-01  
  3.9700e-08    9.000e-01  
  3.9800e-08    9.000e-01  
  3.9900e-08    9.000e-01  
  4.0000e-08    9.000e-01  
y
-----------------------------------------------
x

        time    current    
                    vdd    
  0.0000e+00   -6.725e-07  
  1.0000e-10   -6.725e-07  
  2.0000e-10   -6.725e-07  
  3.0000e-10   -6.725e-07  
  4.0000e-10   -6.725e-07  
  5.0000e-10   -6.725e-07  
  6.0000e-10   -6.725e-07  
  7.0000e-10   -6.725e-07  
  8.0000e-10   -6.725e-07  
  9.0000e-10   -6.725e-07  
  1.0000e-09   -6.725e-07  
  1.1000e-09   -6.725e-07  
  1.2000e-09   -6.725e-07  
  1.3000e-09   -6.725e-07  
  1.4000e-09   -6.725e-07  
  1.5000e-09   -6.725e-07  
  1.6000e-09   -6.725e-07  
  1.7000e-09   -6.725e-07  
  1.8000e-09   -6.725e-07  
  1.9000e-09   -6.725e-07  
  2.0000e-09   -6.725e-07  
  2.1000e-09   -6.725e-07  
  2.2000e-09   -6.725e-07  
  2.3000e-09   -6.725e-07  
  2.4000e-09   -6.725e-07  
  2.5000e-09   -6.725e-07  
  2.6000e-09   -6.725e-07  
  2.7000e-09   -6.725e-07  
  2.8000e-09   -6.725e-07  
  2.9000e-09   -6.725e-07  
  3.0000e-09   -6.725e-07  
  3.1000e-09   -6.725e-07  
  3.2000e-09   -6.725e-07  
  3.3000e-09   -6.725e-07  
  3.4000e-09   -6.725e-07  
  3.5000e-09   -6.725e-07  
  3.6000e-09   -6.725e-07  
  3.7000e-09   -6.725e-07  
  3.8000e-09   -6.725e-07  
  3.9000e-09   -6.725e-07  
  4.0000e-09   -6.725e-07  
  4.1000e-09   -6.725e-07  
  4.2000e-09   -6.725e-07  
  4.3000e-09   -6.725e-07  
  4.4000e-09   -6.725e-07  
  4.5000e-09   -6.725e-07  
  4.6000e-09   -6.725e-07  
  4.7000e-09   -6.725e-07  
  4.8000e-09   -6.725e-07  
  4.9000e-09   -6.725e-07  
  5.0000e-09   -6.725e-07  
  5.1000e-09   -6.647e-07  
  5.2000e-09   -6.725e-07  
  5.3000e-09   -6.725e-07  
  5.4000e-09   -6.724e-07  
  5.5000e-09   -6.724e-07  
  5.6000e-09   -6.725e-07  
  5.7000e-09   -6.725e-07  
  5.8000e-09   -6.725e-07  
  5.9000e-09   -6.725e-07  
  6.0000e-09   -6.725e-07  
  6.1000e-09   -6.725e-07  
  6.2000e-09   -6.724e-07  
  6.3000e-09   -6.724e-07  
  6.4000e-09   -6.724e-07  
  6.5000e-09   -6.724e-07  
  6.6000e-09   -6.724e-07  
  6.7000e-09   -6.724e-07  
  6.8000e-09   -6.724e-07  
  6.9000e-09   -6.724e-07  
  7.0000e-09   -6.724e-07  
  7.1000e-09   -6.724e-07  
  7.2000e-09   -6.724e-07  
  7.3000e-09   -6.725e-07  
  7.4000e-09   -6.725e-07  
  7.5000e-09   -6.725e-07  
  7.6000e-09   -6.601e-07  
  7.7000e-09   -6.707e-07  
  7.8000e-09   -6.699e-07  
  7.9000e-09   -6.705e-07  
  8.0000e-09   -6.709e-07  
  8.1000e-09   -6.707e-07  
  8.2000e-09   -6.705e-07  
  8.3000e-09   -6.702e-07  
  8.4000e-09   -6.700e-07  
  8.5000e-09   -6.698e-07  
  8.6000e-09   -6.697e-07  
  8.7000e-09   -6.697e-07  
  8.8000e-09   -6.698e-07  
  8.9000e-09   -6.699e-07  
  9.0000e-09   -6.700e-07  
  9.1000e-09   -6.701e-07  
  9.2000e-09   -6.702e-07  
  9.3000e-09   -6.703e-07  
  9.4000e-09   -6.704e-07  
  9.5000e-09   -6.705e-07  
  9.6000e-09   -6.706e-07  
  9.7000e-09   -6.707e-07  
  9.8000e-09   -6.708e-07  
  9.9000e-09   -6.709e-07  
  1.0000e-08   -6.709e-07  
  1.0100e-08   -7.157e-07  
  1.0200e-08   -6.727e-07  
  1.0300e-08   -6.720e-07  
  1.0400e-08   -6.724e-07  
  1.0500e-08   -6.730e-07  
  1.0600e-08   -6.728e-07  
  1.0700e-08   -6.726e-07  
  1.0800e-08   -6.724e-07  
  1.0900e-08   -6.722e-07  
  1.1000e-08   -6.720e-07  
  1.1100e-08   -6.719e-07  
  1.1200e-08   -6.720e-07  
  1.1300e-08   -6.721e-07  
  1.1400e-08   -6.722e-07  
  1.1500e-08   -6.723e-07  
  1.1600e-08   -6.724e-07  
  1.1700e-08   -6.725e-07  
  1.1800e-08   -6.726e-07  
  1.1900e-08   -6.727e-07  
  1.2000e-08   -6.727e-07  
  1.2100e-08   -6.728e-07  
  1.2200e-08   -6.729e-07  
  1.2300e-08   -6.730e-07  
  1.2400e-08   -6.730e-07  
  1.2500e-08   -6.729e-07  
  1.2600e-08   -6.729e-07  
  1.2700e-08   -6.728e-07  
  1.2800e-08   -6.728e-07  
  1.2900e-08   -6.727e-07  
  1.3000e-08   -6.727e-07  
  1.3100e-08   -6.726e-07  
  1.3200e-08   -6.725e-07  
  1.3300e-08   -6.725e-07  
  1.3400e-08   -6.724e-07  
  1.3500e-08   -6.724e-07  
  1.3600e-08   -6.723e-07  
  1.3700e-08   -6.723e-07  
  1.3800e-08   -6.722e-07  
  1.3900e-08   -6.721e-07  
  1.4000e-08   -6.721e-07  
  1.4100e-08   -6.720e-07  
  1.4200e-08   -6.720e-07  
  1.4300e-08   -6.719e-07  
  1.4400e-08   -6.720e-07  
  1.4500e-08   -6.722e-07  
  1.4600e-08   -6.724e-07  
  1.4700e-08   -6.725e-07  
  1.4800e-08   -6.727e-07  
  1.4900e-08   -6.729e-07  
  1.5000e-08   -6.730e-07  
  1.5100e-08   -6.569e-07  
  1.5200e-08   -6.726e-07  
  1.5300e-08   -6.723e-07  
  1.5400e-08   -6.724e-07  
  1.5500e-08   -6.725e-07  
  1.5600e-08   -6.725e-07  
  1.5700e-08   -6.724e-07  
  1.5800e-08   -6.724e-07  
  1.5900e-08   -6.723e-07  
  1.6000e-08   -6.723e-07  
  1.6100e-08   -6.723e-07  
  1.6200e-08   -6.723e-07  
  1.6300e-08   -6.724e-07  
  1.6400e-08   -6.724e-07  
  1.6500e-08   -6.724e-07  
  1.6600e-08   -6.724e-07  
  1.6700e-08   -6.724e-07  
  1.6800e-08   -6.724e-07  
  1.6900e-08   -6.725e-07  
  1.7000e-08   -6.725e-07  
  1.7100e-08   -6.725e-07  
  1.7200e-08   -6.725e-07  
  1.7300e-08   -6.725e-07  
  1.7400e-08   -6.724e-07  
  1.7500e-08   -6.723e-07  
  1.7600e-08   -1.506e-07  
  1.7700e-08   -1.375e-08  
  1.7800e-08    5.813e-08  
  1.7900e-08    9.689e-09  
  1.8000e-08    1.108e-07  
  1.8100e-08   -1.215e-07  
  1.8200e-08    3.782e-08  
  1.8300e-08    7.142e-08  
  1.8400e-08   -3.521e-08  
  1.8500e-08   -1.103e-07  
  1.8600e-08   -3.872e-08  
  1.8700e-08    3.287e-08  
  1.8800e-08    1.045e-07  
  1.8900e-08    8.535e-08  
  1.9000e-08    3.737e-08  
  1.9100e-08   -1.061e-08  
  1.9200e-08   -5.859e-08  
  1.9300e-08   -1.066e-07  
  1.9400e-08   -9.855e-08  
  1.9500e-08   -6.184e-08  
  1.9600e-08   -2.513e-08  
  1.9700e-08    1.158e-08  
  1.9800e-08    4.829e-08  
  1.9900e-08    8.500e-08  
  2.0000e-08    1.217e-07  
  2.0100e-08   -9.746e-08  
  2.0200e-08   -2.170e-09  
  2.0300e-08   -2.766e-09  
  2.0400e-08   -2.224e-09  
  2.0500e-08   -2.614e-09  
  2.0600e-08   -3.003e-09  
  2.0700e-08   -3.052e-09  
  2.0800e-08   -2.939e-09  
  2.0900e-08   -2.826e-09  
  2.1000e-08   -2.714e-09  
  2.1100e-08   -2.601e-09  
  2.1200e-08   -2.488e-09  
  2.1300e-08   -2.376e-09  
  2.1400e-08   -2.263e-09  
  2.1500e-08   -2.175e-09  
  2.1600e-08   -2.220e-09  
  2.1700e-08   -2.265e-09  
  2.1800e-08   -2.311e-09  
  2.1900e-08   -2.356e-09  
  2.2000e-08   -2.402e-09  
  2.2100e-08   -2.447e-09  
  2.2200e-08   -2.492e-09  
  2.2300e-08   -2.538e-09  
  2.2400e-08   -2.583e-09  
  2.2500e-08   -2.628e-09  
  2.2600e-08   -2.674e-09  
  2.2700e-08   -2.719e-09  
  2.2800e-08   -2.764e-09  
  2.2900e-08   -2.810e-09  
  2.3000e-08   -2.855e-09  
  2.3100e-08   -2.900e-09  
  2.3200e-08   -2.946e-09  
  2.3300e-08   -2.991e-09  
  2.3400e-08   -3.036e-09  
  2.3500e-08   -3.068e-09  
  2.3600e-08   -3.022e-09  
  2.3700e-08   -2.977e-09  
  2.3800e-08   -2.932e-09  
  2.3900e-08   -2.887e-09  
  2.4000e-08   -2.842e-09  
  2.4100e-08   -2.796e-09  
  2.4200e-08   -2.751e-09  
  2.4300e-08   -2.706e-09  
  2.4400e-08   -2.661e-09  
  2.4500e-08   -2.615e-09  
  2.4600e-08   -2.570e-09  
  2.4700e-08   -2.525e-09  
  2.4800e-08   -2.480e-09  
  2.4900e-08   -2.435e-09  
  2.5000e-08   -2.389e-09  
  2.5100e-08   -2.344e-09  
  2.5200e-08   -2.299e-09  
  2.5300e-08   -2.254e-09  
  2.5400e-08   -2.209e-09  
  2.5500e-08   -2.177e-09  
  2.5600e-08   -2.221e-09  
  2.5700e-08   -2.265e-09  
  2.5800e-08   -2.309e-09  
  2.5900e-08   -2.353e-09  
  2.6000e-08   -2.397e-09  
  2.6100e-08   -2.441e-09  
  2.6200e-08   -2.485e-09  
  2.6300e-08   -2.528e-09  
  2.6400e-08   -2.572e-09  
  2.6500e-08   -2.616e-09  
  2.6600e-08   -2.660e-09  
  2.6700e-08   -2.704e-09  
  2.6800e-08   -2.748e-09  
  2.6900e-08   -2.792e-09  
  2.7000e-08   -2.836e-09  
  2.7100e-08   -2.880e-09  
  2.7200e-08   -2.924e-09  
  2.7300e-08   -2.968e-09  
  2.7400e-08   -3.011e-09  
  2.7500e-08   -3.055e-09  
  2.7600e-08   -7.749e-06  
  2.7700e-08   -6.307e-07  
  2.7800e-08    2.225e-08  
  2.7900e-08    9.515e-09  
  2.8000e-08   -3.236e-08  
  2.8100e-08    1.347e-08  
  2.8200e-08    1.888e-08  
  2.8300e-08   -4.214e-08  
  2.8400e-08   -1.752e-08  
  2.8500e-08    2.723e-08  
  2.8600e-08    3.768e-08  
  2.8700e-08    5.020e-09  
  2.8800e-08   -2.764e-08  
  2.8900e-08   -4.857e-08  
  2.9000e-08   -2.465e-08  
  2.9100e-08   -7.369e-10  
  2.9200e-08    2.318e-08  
  2.9300e-08    4.710e-08  
  2.9400e-08    3.855e-08  
  2.9500e-08    2.107e-08  
  2.9600e-08    3.589e-09  
  2.9700e-08   -1.389e-08  
  2.9800e-08   -3.137e-08  
  2.9900e-08   -4.885e-08  
  3.0000e-08    5.223e-08  
  3.0100e-08    7.082e-09  
  3.0200e-08   -1.026e-09  
  3.0300e-08   -4.869e-11  
  3.0400e-08   -4.933e-10  
  3.0500e-08   -9.378e-10  
  3.0600e-08   -9.761e-10  
  3.0700e-08   -8.205e-10  
  3.0800e-08   -6.650e-10  
  3.0900e-08   -5.094e-10  
  3.1000e-08   -3.538e-10  
  3.1100e-08   -1.983e-10  
  3.1200e-08   -4.273e-11  
  3.1300e-08   -8.631e-11  
  3.1400e-08   -1.495e-10  
  3.1500e-08   -2.127e-10  
  3.1600e-08   -2.760e-10  
  3.1700e-08   -3.392e-10  
  3.1800e-08   -4.024e-10  
  3.1900e-08   -4.656e-10  
  3.2000e-08   -5.288e-10  
  3.2100e-08   -5.921e-10  
  3.2200e-08   -6.553e-10  
  3.2300e-08   -7.185e-10  
  3.2400e-08   -7.817e-10  
  3.2500e-08   -8.449e-10  
  3.2600e-08   -9.082e-10  
  3.2700e-08   -9.714e-10  
  3.2800e-08   -1.035e-09  
  3.2900e-08   -1.044e-09  
  3.3000e-08   -9.911e-10  
  3.3100e-08   -9.387e-10  
  3.3200e-08   -8.862e-10  
  3.3300e-08   -8.338e-10  
  3.3400e-08   -7.814e-10  
  3.3500e-08   -7.290e-10  
  3.3600e-08   -6.766e-10  
  3.3700e-08   -6.241e-10  
  3.3800e-08   -5.717e-10  
  3.3900e-08   -5.193e-10  
  3.4000e-08   -4.669e-10  
  3.4100e-08   -4.144e-10  
  3.4200e-08   -3.620e-10  
  3.4300e-08   -3.096e-10  
  3.4400e-08   -2.572e-10  
  3.4500e-08   -2.047e-10  
  3.4600e-08   -1.523e-10  
  3.4700e-08   -9.990e-11  
  3.4800e-08   -4.747e-11  
  3.4900e-08   -4.429e-11  
  3.5000e-08   -9.673e-11  
  3.5100e-08   -1.492e-10  
  3.5200e-08   -2.016e-10  
  3.5300e-08   -2.540e-10  
  3.5400e-08   -3.065e-10  
  3.5500e-08   -3.589e-10  
  3.5600e-08   -4.114e-10  
  3.5700e-08   -4.638e-10  
  3.5800e-08   -5.162e-10  
  3.5900e-08   -5.687e-10  
  3.6000e-08   -6.211e-10  
  3.6100e-08   -6.736e-10  
  3.6200e-08   -7.260e-10  
  3.6300e-08   -7.784e-10  
  3.6400e-08   -8.309e-10  
  3.6500e-08   -8.833e-10  
  3.6600e-08   -9.358e-10  
  3.6700e-08   -9.882e-10  
  3.6800e-08   -1.041e-09  
  3.6900e-08   -1.044e-09  
  3.7000e-08   -9.914e-10  
  3.7100e-08   -9.389e-10  
  3.7200e-08   -8.865e-10  
  3.7300e-08   -8.340e-10  
  3.7400e-08   -7.816e-10  
  3.7500e-08   -7.291e-10  
  3.7600e-08   -6.767e-10  
  3.7700e-08   -6.242e-10  
  3.7800e-08   -5.718e-10  
  3.7900e-08   -5.193e-10  
  3.8000e-08   -4.669e-10  
  3.8100e-08   -4.144e-10  
  3.8200e-08   -3.620e-10  
  3.8300e-08   -3.095e-10  
  3.8400e-08   -2.571e-10  
  3.8500e-08   -2.046e-10  
  3.8600e-08   -1.522e-10  
  3.8700e-08   -9.972e-11  
  3.8800e-08   -4.727e-11  
  3.8900e-08   -6.246e-11  
  3.9000e-08   -1.541e-10  
  3.9100e-08   -2.457e-10  
  3.9200e-08   -3.373e-10  
  3.9300e-08   -4.289e-10  
  3.9400e-08   -5.205e-10  
  3.9500e-08   -6.121e-10  
  3.9600e-08   -7.037e-10  
  3.9700e-08   -7.953e-10  
  3.9800e-08   -8.869e-10  
  3.9900e-08   -9.785e-10  
  4.0000e-08   -1.070e-09  
y
-----------------------------------------------

          ***** job concluded
1****** HSPICE -- H-2013.03 64-BIT (Mar  7 2013) win64 ******                   
 ******  
 'inverter'

  ******  job statistics summary tnom=  25.000 temp=  25.000 *****

  ******  HSPICE Threads Information  ******

  Command Line Threads Count :     1
  Available CPU Count        :     4
  Actual Threads Count       :     1


  ******  Circuit Statistics  ******
  # nodes       =     519 # elements   =    1174
  # resistors   =     216 # capacitors =     522 # inductors   =       0
  # mutual_inds =       0 # vccs       =     144 # vcvs        =     252
  # cccs        =       0 # ccvs       =       0 # volt_srcs   =      40
  # curr_srcs   =       0 # diodes     =       0 # bjts        =       0
  # jfets       =       0 # mosfets    =       0 # U elements  =       0
  # T elements  =       0 # W elements =       0 # B elements  =       0
  # S elements  =       0 # P elements =       0 # va device   =       0
  # vector_srcs =       0 # N elements =       0


  ******  Runtime Statistics (seconds)  ******

  analysis           time    # points   tot. iter  conv.iter
  op point          20.16           1         451
  transient         14.92         401         611         184 rev=        14
  readin             0.08
  errchk             0.32
  setup              0.01
  output             0.01


           peak memory used         53.04 megabytes
           total cpu time           35.49 seconds
           total elapsed time       35.54 seconds
           job started at     00:44:52 02/02/2018
           job ended   at     00:45:28 02/02/2018


  lic: Release hspice token(s) 
 lic: total license checkout elapse time:        0.04(s)
