 ****** HSPICE -- H-2013.03 64-BIT (Mar  7 2013) win64 ******                   
  Copyright (C) 2013 Synopsys, Inc. All Rights Reserved.                        
  Unpublished-rights reserved under US copyright laws.
  This program is protected by law and is subject to the
  terms and conditions of the license agreement from Synopsys.
  Use of this program is your acceptance to be bound by the
  license agreement. HSPICE is the trademark of Synopsys, Inc.
  Input File: sramuingresistor.sp                                               
  Command line options: -i sramuingresistor.sp -o sramuingresistor.lis
  lic:  
  lic: FLEXlm: v10.9.8 
  lic: USER:   Dell                 HOSTNAME: DESKTOP-O3DHVG1 
  lic: HOSTID: "a0d37a293ca8 28f10e041fd4 a0d37a293ca4 a0d37a293ca5" PID:      1
 1108 
  lic: Using FLEXlm license file: 
  lic: C:\synopsys\Hspice_H-2013.03\lic.dat\lic.lic 
  lic: Checkout 1 hspice 
  lic: License/Maintenance for hspice will expire on 31-dec-2019/2019.12 
  lic: NODE LOCKED license on hostid "a0d37a293ca8 28f10e041fd4 a0d37a293ca4 a0d
 37a293ca5" 
  lic:   
 Init: read install configuration file: C:\synopsys\Hspice_H-2013.03\meta.cfg
 scientific notation:
 a=10**-18  f=10**-15  p=10**-12  n=10**-9  u=10**-6
 m=10**-3   k=10**3    x=10**6    g=10**9 
1****** HSPICE -- H-2013.03 64-BIT (Mar  7 2013) win64 ******                   
 ******  
 'inverter'

  ******  circuit name directory
 circuit number to circuit name directory
   number circuitname                     definition         multiplier
        0 main circuit


 circuit parameter definitions
  parameter          =  value 

     0:temp                                                    = 2.700e+01      
     0:m_cnt                                                   = 1.000e+00      
     0:wg                                                      = 4.000e-09      
     0:cb                                                      = 4.000e-11      
     0:lg                                                      = 1.000e-08      
     0:lgef                                                    = 1.000e-07      
     0:vfn                                                     = 0.000e+00      
     0:vfp                                                     = 0.000e+00      
     0:m                                                       = 0.000e+00      
     0:n                                                       = 1.900e+01      
     0:hox                                                     = 4.000e-09      
     1:tox                                                     = 4.000e-09      
     1:csub                                                    = 4.000e-11      
     1:vfbn                                                    = 0.000e+00      
     1:pitch                                                   = 2.000e-08      
     1:n1                                                      = 0.000e+00      
     1:n2                                                      = 1.900e+01      
     1:kgate                                                   = 1.600e+01      
     1:dout                                                    = 0.000e+00      
     1:sout                                                    = 0.000e+00      
     1:tubes                                                   = 1.000e+00      
     1:lch                                                     = 1.000e-08      
     1:lgeff                                                   = 1.000e-07      
     1:lss                                                     = 3.200e-08      
     1:ldd                                                     = 3.200e-08      
     2:tox                                                     = 4.000e-09      
     2:csub                                                    = 4.000e-11      
     2:vfbn                                                    = 0.000e+00      
     2:pitch                                                   = 2.000e-08      
     2:n1                                                      = 0.000e+00      
     2:n2                                                      = 1.000e+01      
     2:kgate                                                   = 1.600e+01      
     2:dout                                                    = 0.000e+00      
     2:sout                                                    = 0.000e+00      
     2:tubes                                                   = 1.000e+00      
     2:lch                                                     = 1.000e-08      
     2:lgeff                                                   = 1.000e-07      
     2:lss                                                     = 3.200e-08      
     2:ldd                                                     = 3.200e-08      
     5:tox                                                     = 4.000e-09      
     5:csub                                                    = 4.000e-11      
     5:pitch                                                   = 2.000e-08      
     5:n1                                                      = 0.000e+00      
     5:n2                                                      = 1.900e+01      
     5:vfbp                                                    = 0.000e+00      
     5:kgate                                                   = 1.600e+01      
     5:dout                                                    = 0.000e+00      
     5:sout                                                    = 0.000e+00      
     5:tubes                                                   = 1.000e+00      
     5:lch                                                     = 1.000e-08      
     5:lgeff                                                   = 1.000e-07      
     5:lss                                                     = 3.200e-08      
     5:ldd                                                     = 3.200e-08      
     7:tox                                                     = 4.000e-09      
     7:csub                                                    = 4.000e-11      
     7:pitch                                                   = 2.000e-08      
     7:n1                                                      = 0.000e+00      
     7:n2                                                      = 1.000e+01      
     7:vfbp                                                    = 0.000e+00      
     7:kgate                                                   = 1.600e+01      
     7:dout                                                    = 0.000e+00      
     7:sout                                                    = 0.000e+00      
     7:tubes                                                   = 1.000e+00      
     7:lch                                                     = 1.000e-08      
     7:lgeff                                                   = 1.000e-07      
     7:lss                                                     = 3.200e-08      
     7:ldd                                                     = 3.200e-08      




 constants  - tnom         kt           vt           gapsi        ni
            2.9815e+02   4.1163e-21   2.5692e-02   1.1156e+00   1.2565e+16 
  **info** (sramuingresistor.sp:114) DC voltage reset to initial transient source value              in source        0:vrwl                new dc=  0.0000D+00

 **warning**  associated with encrypted block(s) were suppressed due to encrypted content

1****** HSPICE -- H-2013.03 64-BIT (Mar  7 2013) win64 ******                   
 ******  
 'inverter'

  ******  circuit element summary tnom=  25.000 temp=  25.000 *****


 **** resistors

  
  
                                                              
 element name        0:r1       0:r2       0:r3       0:r4    
 node1               0:vdd      0:qb       0:vdd      0:q     
 node2               0:qb       0:n1       0:q        0:n2    
 model                                                        
 res eff           1.000e+08  1.000e+08  1.000e+08  1.000e+08 
 tc1                 0.         0.         0.         0.      
 tc2                 0.         0.         0.         0.      
 scale             1.000e+00  1.000e+00  1.000e+00  1.000e+00 
 m                 1.000e+00  1.000e+00  1.000e+00  1.000e+00 
 ac                1.000e+08  1.000e+08  1.000e+08  1.000e+08 
 temp              2.500e+01  2.500e+01  2.500e+01  2.500e+01 
 l                   0.         0.         0.         0.      
 w                   0.         0.         0.         0.      
 cap                 0.         0.         0.         0.      
 noise            1.000e+00  1.000e+00  1.000e+00  1.000e+00  


 **** independent sources

     name         node1        node2      dc volt    ac mag    ac phase    type
  vdd  vdd               0                  9.000e-01  0.000e+00  0.000e+00 dc   
  vrwl  rwl               0                  0.000e+00  0.000e+00  0.000e+00 pwl  
                time        value

                 0.000e+00    0.000e+00
                 1.250e-08    0.000e+00
                 1.260e-08    9.000e-01
                 1.500e-08    9.000e-01
                 1.510e-08    0.000e+00
                 2.250e-08    0.000e+00
                 2.260e-08    9.000e-01
                 2.500e-08    9.000e-01
                 2.510e-08    0.000e+00
                 3.250e-08    0.000e+00
                 3.260e-08    9.000e-01
                 3.500e-08    9.000e-01


  vrwlb  rwlb              0                  9.000e-01  0.000e+00  0.000e+00 pwl  
                time        value

                 0.000e+00    9.000e-01
                 1.250e-08    9.000e-01
                 1.260e-08    0.000e+00
                 1.500e-08    0.000e+00
                 1.510e-08    9.000e-01
                 2.250e-08    9.000e-01
                 2.260e-08    0.000e+00
                 2.500e-08    0.000e+00
                 2.510e-08    9.000e-01
                 3.250e-08    9.000e-01
                 3.260e-08    0.000e+00
                 3.500e-08    0.000e+00


  vwbl  wbl               0                  0.000e+00  0.000e+00  0.000e+00 pwl  
                time        value

                 0.000e+00    0.000e+00
                 5.000e-09    0.000e+00
                 5.100e-09    4.500e-01
                 1.000e-08    4.500e-01
                 1.010e-08    0.000e+00
                 1.500e-08    0.000e+00
                 1.510e-08    9.000e-01
                 2.000e-08    9.000e-01
                 2.010e-08    0.000e+00
                 3.000e-08    0.000e+00
                 4.000e-08    0.000e+00


  vwwl  wwl               0                  0.000e+00  0.000e+00  0.000e+00 pwl  
                time        value

                 0.000e+00    0.000e+00
                 7.500e-09    0.000e+00
                 7.600e-09    9.000e-01
                 1.000e-08    9.000e-01
                 1.010e-08    0.000e+00
                 1.750e-08    0.000e+00
                 1.760e-08    9.000e-01
                 2.000e-08    9.000e-01
                 2.010e-08    0.000e+00
                 2.750e-08    0.000e+00
                 2.760e-08    9.000e-01
                 3.000e-08    9.000e-01
                 3.010e-08    0.000e+00
                 4.000e-08    0.000e+00


  vwwlb  wwlb              0                  9.000e-01  0.000e+00  0.000e+00 pwl  
                time        value

                 0.000e+00    9.000e-01
                 7.500e-09    9.000e-01
                 7.600e-09    0.000e+00
                 1.000e-08    0.000e+00
                 1.010e-08    9.000e-01
                 1.750e-08    9.000e-01
                 1.760e-08    0.000e+00
                 2.000e-08    0.000e+00
                 2.010e-08    9.000e-01
                 2.750e-08    9.000e-01
                 2.760e-08    0.000e+00
                 3.000e-08    0.000e+00
                 3.010e-08    9.000e-01
                 4.000e-08    9.000e-01




 **** subcircuit calls
    name        subcircuit         external nodes


         0:xcnt111  ncnfet          0:n1          0:q           0:0       
                               0:0       


         0:xcnt222  ncnfet          0:qb          0:q           0:0       
                               0:0       


         0:xcnt333  ncnfet          0:n2          0:qb          0:0       
                               0:0       


         0:xcnt444  ncnfet          0:q           0:qb          0:0       
                               0:0       


         0:xcnt2    pcnfet          0:q           0:wwlb        0:wbl     
                               0:wbl     


         0:xcnt1    ncnfet          0:wbl         0:wwl         0:q       
                               0:q       


         0:xcnt16   pcnfet          0:vdd         0:qb          0:n5      
                               0:n5      


         0:xcnt15   ncnfet          0:n5          0:qb          0:0       
                               0:0       


         0:xcnt18   pcnfet          0:rbl         0:rwlb        0:n5      
                               0:n5      


         0:xcnt17   ncnfet          0:n5          0:rwl         0:rbl     
                               0:rbl     


  
1****** HSPICE -- H-2013.03 64-BIT (Mar  7 2013) win64 ******                   
 ******  
 'inverter'

  ******  element node table
                                                                                      
 0                vdd              vrwl             vrwlb            vwbl             
                  vwwl             vwwlb                                              
 n1               r2                                                                  
 n2               r4                                                                  
 q                r3               r4                                                 
 qb               r1               r2                                                 
 rwl              vrwl                                                                
 rwlb             vrwlb                                                               
 vdd              r1               r3               vdd                               
 wbl              vwbl                                                                
 wwl              vwwl                                                                
 wwlb             vwwlb                                                               
  **warning** PIVOT option setting is simplified, pivot = 13 is obsolete,
              automatically switch to pivot = 1.
 *****************************************************************
 ******  option summary
 ******
 runlvl  = 3         bypass  = 2         
  Opening plot unit= 79
 file=sramuingresistor.pa0

1****** HSPICE -- H-2013.03 64-BIT (Mar  7 2013) win64 ******                   
 ******  
 'inverter'

  ******  operating point information tnom=  25.000 temp=  25.000 *****
 ***** operating point status is voltage   simulation time is   0.000e+00
     node    =voltage       node    =voltage       node    =voltage

 + 0:n1      = 2.592e-02  0:n2      = 2.375e-02  0:n5      = 7.960e-01
 + 0:q       = 4.445e-01  0:qb      = 4.523e-01  0:rbl     = 1.679e-03
 + 0:rwl     = 0.000e+00  0:rwlb    = 9.000e-01  0:vdd     = 9.000e-01
 + 0:wbl     = 0.000e+00  0:wwl     = 0.000e+00  0:wwlb    = 9.000e-01

 ******  
 'inverter'

  ******  transient analysis tnom=  25.000 temp=  25.000 *****
x

        time    voltage      voltage      voltage      voltage    
                     q           qb           wbl         wwlb    
  0.0000e+00    4.445e-01    4.523e-01    0.000e+00    9.000e-01  
  1.0000e-10    4.445e-01    4.523e-01    0.000e+00    9.000e-01  
  2.0000e-10    4.445e-01    4.523e-01    0.000e+00    9.000e-01  
  3.0000e-10    4.445e-01    4.523e-01    0.000e+00    9.000e-01  
  4.0000e-10    4.445e-01    4.523e-01    0.000e+00    9.000e-01  
  5.0000e-10    4.445e-01    4.523e-01    0.000e+00    9.000e-01  
  6.0000e-10    4.445e-01    4.523e-01    0.000e+00    9.000e-01  
  7.0000e-10    4.445e-01    4.523e-01    0.000e+00    9.000e-01  
  8.0000e-10    4.445e-01    4.523e-01    0.000e+00    9.000e-01  
  9.0000e-10    4.445e-01    4.523e-01    0.000e+00    9.000e-01  
  1.0000e-09    4.445e-01    4.523e-01    0.000e+00    9.000e-01  
  1.1000e-09    4.445e-01    4.523e-01    0.000e+00    9.000e-01  
  1.2000e-09    4.445e-01    4.523e-01    0.000e+00    9.000e-01  
  1.3000e-09    4.445e-01    4.523e-01    0.000e+00    9.000e-01  
  1.4000e-09    4.445e-01    4.523e-01    0.000e+00    9.000e-01  
  1.5000e-09    4.445e-01    4.523e-01    0.000e+00    9.000e-01  
  1.6000e-09    4.445e-01    4.523e-01    0.000e+00    9.000e-01  
  1.7000e-09    4.445e-01    4.523e-01    0.000e+00    9.000e-01  
  1.8000e-09    4.445e-01    4.523e-01    0.000e+00    9.000e-01  
  1.9000e-09    4.445e-01    4.523e-01    0.000e+00    9.000e-01  
  2.0000e-09    4.445e-01    4.523e-01    0.000e+00    9.000e-01  
  2.1000e-09    4.445e-01    4.523e-01    0.000e+00    9.000e-01  
  2.2000e-09    4.445e-01    4.523e-01    0.000e+00    9.000e-01  
  2.3000e-09    4.445e-01    4.523e-01    0.000e+00    9.000e-01  
  2.4000e-09    4.445e-01    4.523e-01    0.000e+00    9.000e-01  
  2.5000e-09    4.445e-01    4.523e-01    0.000e+00    9.000e-01  
  2.6000e-09    4.445e-01    4.523e-01    0.000e+00    9.000e-01  
  2.7000e-09    4.445e-01    4.523e-01    0.000e+00    9.000e-01  
  2.8000e-09    4.445e-01    4.523e-01    0.000e+00    9.000e-01  
  2.9000e-09    4.445e-01    4.523e-01    0.000e+00    9.000e-01  
  3.0000e-09    4.445e-01    4.523e-01    0.000e+00    9.000e-01  
  3.1000e-09    4.445e-01    4.523e-01    0.000e+00    9.000e-01  
  3.2000e-09    4.445e-01    4.523e-01    0.000e+00    9.000e-01  
  3.3000e-09    4.445e-01    4.523e-01    0.000e+00    9.000e-01  
  3.4000e-09    4.445e-01    4.523e-01    0.000e+00    9.000e-01  
  3.5000e-09    4.445e-01    4.523e-01    0.000e+00    9.000e-01  
  3.6000e-09    4.445e-01    4.523e-01    0.000e+00    9.000e-01  
  3.7000e-09    4.445e-01    4.523e-01    0.000e+00    9.000e-01  
  3.8000e-09    4.445e-01    4.523e-01    0.000e+00    9.000e-01  
  3.9000e-09    4.445e-01    4.523e-01    0.000e+00    9.000e-01  
  4.0000e-09    4.445e-01    4.523e-01    0.000e+00    9.000e-01  
  4.1000e-09    4.445e-01    4.523e-01    0.000e+00    9.000e-01  
  4.2000e-09    4.445e-01    4.523e-01    0.000e+00    9.000e-01  
  4.3000e-09    4.445e-01    4.523e-01    0.000e+00    9.000e-01  
  4.4000e-09    4.445e-01    4.523e-01    0.000e+00    9.000e-01  
  4.5000e-09    4.445e-01    4.523e-01    0.000e+00    9.000e-01  
  4.6000e-09    4.445e-01    4.523e-01    0.000e+00    9.000e-01  
  4.7000e-09    4.445e-01    4.523e-01    0.000e+00    9.000e-01  
  4.8000e-09    4.445e-01    4.523e-01    0.000e+00    9.000e-01  
  4.9000e-09    4.445e-01    4.523e-01    0.000e+00    9.000e-01  
  5.0000e-09    4.445e-01    4.523e-01    0.000e+00    9.000e-01  
  5.1000e-09    5.448e-01    4.423e-01    4.500e-01    9.000e-01  
  5.2000e-09    5.331e-01    4.184e-01    4.500e-01    9.000e-01  
  5.3000e-09    5.246e-01    4.042e-01    4.500e-01    9.000e-01  
  5.4000e-09    5.180e-01    3.982e-01    4.500e-01    9.000e-01  
  5.5000e-09    5.122e-01    3.941e-01    4.500e-01    9.000e-01  
  5.6000e-09    5.077e-01    3.940e-01    4.500e-01    9.000e-01  
  5.7000e-09    5.033e-01    3.938e-01    4.500e-01    9.000e-01  
  5.8000e-09    4.990e-01    3.939e-01    4.500e-01    9.000e-01  
  5.9000e-09    4.960e-01    3.959e-01    4.500e-01    9.000e-01  
  6.0000e-09    4.930e-01    3.980e-01    4.500e-01    9.000e-01  
  6.1000e-09    4.901e-01    4.000e-01    4.500e-01    9.000e-01  
  6.2000e-09    4.875e-01    4.022e-01    4.500e-01    9.000e-01  
  6.3000e-09    4.854e-01    4.044e-01    4.500e-01    9.000e-01  
  6.4000e-09    4.834e-01    4.067e-01    4.500e-01    9.000e-01  
  6.5000e-09    4.813e-01    4.090e-01    4.500e-01    9.000e-01  
  6.6000e-09    4.793e-01    4.112e-01    4.500e-01    9.000e-01  
  6.7000e-09    4.772e-01    4.135e-01    4.500e-01    9.000e-01  
  6.8000e-09    4.756e-01    4.155e-01    4.500e-01    9.000e-01  
  6.9000e-09    4.743e-01    4.174e-01    4.500e-01    9.000e-01  
  7.0000e-09    4.729e-01    4.193e-01    4.500e-01    9.000e-01  
  7.1000e-09    4.716e-01    4.212e-01    4.500e-01    9.000e-01  
  7.2000e-09    4.703e-01    4.231e-01    4.500e-01    9.000e-01  
  7.3000e-09    4.690e-01    4.250e-01    4.500e-01    9.000e-01  
  7.4000e-09    4.676e-01    4.269e-01    4.500e-01    9.000e-01  
  7.5000e-09    4.665e-01    4.285e-01    4.500e-01    9.000e-01  
  7.6000e-09    5.296e-01    4.175e-01    4.500e-01    0.000e+00  
  7.7000e-09    4.590e-01    4.171e-01    4.500e-01    0.000e+00  
  7.8000e-09    4.511e-01    4.211e-01    4.500e-01    0.000e+00  
  7.9000e-09    4.505e-01    4.250e-01    4.500e-01    0.000e+00  
  8.0000e-09    4.505e-01    4.283e-01    4.500e-01    0.000e+00  
  8.1000e-09    4.504e-01    4.311e-01    4.500e-01    0.000e+00  
  8.2000e-09    4.504e-01    4.334e-01    4.500e-01    0.000e+00  
  8.3000e-09    4.503e-01    4.357e-01    4.500e-01    0.000e+00  
  8.4000e-09    4.503e-01    4.373e-01    4.500e-01    0.000e+00  
  8.5000e-09    4.502e-01    4.384e-01    4.500e-01    0.000e+00  
  8.6000e-09    4.502e-01    4.395e-01    4.500e-01    0.000e+00  
  8.7000e-09    4.502e-01    4.405e-01    4.500e-01    0.000e+00  
  8.8000e-09    4.502e-01    4.416e-01    4.500e-01    0.000e+00  
  8.9000e-09    4.501e-01    4.427e-01    4.500e-01    0.000e+00  
  9.0000e-09    4.501e-01    4.437e-01    4.500e-01    0.000e+00  
  9.1000e-09    4.501e-01    4.448e-01    4.500e-01    0.000e+00  
  9.2000e-09    4.501e-01    4.457e-01    4.500e-01    0.000e+00  
  9.3000e-09    4.501e-01    4.460e-01    4.500e-01    0.000e+00  
  9.4000e-09    4.501e-01    4.463e-01    4.500e-01    0.000e+00  
  9.5000e-09    4.501e-01    4.465e-01    4.500e-01    0.000e+00  
  9.6000e-09    4.500e-01    4.468e-01    4.500e-01    0.000e+00  
  9.7000e-09    4.500e-01    4.470e-01    4.500e-01    0.000e+00  
  9.8000e-09    4.500e-01    4.473e-01    4.500e-01    0.000e+00  
  9.9000e-09    4.500e-01    4.475e-01    4.500e-01    0.000e+00  
  1.0000e-08    4.500e-01    4.478e-01    4.500e-01    0.000e+00  
  1.0100e-08    2.258e-01    4.483e-01    0.000e+00    9.000e-01  
  1.0200e-08    2.624e-01    4.582e-01    0.000e+00    9.000e-01  
  1.0300e-08    2.900e-01    4.724e-01    0.000e+00    9.000e-01  
  1.0400e-08    3.117e-01    4.874e-01    0.000e+00    9.000e-01  
  1.0500e-08    3.235e-01    4.996e-01    0.000e+00    9.000e-01  
  1.0600e-08    3.317e-01    5.095e-01    0.000e+00    9.000e-01  
  1.0700e-08    3.356e-01    5.166e-01    0.000e+00    9.000e-01  
  1.0800e-08    3.368e-01    5.212e-01    0.000e+00    9.000e-01  
  1.0900e-08    3.361e-01    5.240e-01    0.000e+00    9.000e-01  
  1.1000e-08    3.349e-01    5.264e-01    0.000e+00    9.000e-01  
  1.1100e-08    3.326e-01    5.275e-01    0.000e+00    9.000e-01  
  1.1200e-08    3.303e-01    5.286e-01    0.000e+00    9.000e-01  
  1.1300e-08    3.275e-01    5.300e-01    0.000e+00    9.000e-01  
  1.1400e-08    3.230e-01    5.320e-01    0.000e+00    9.000e-01  
  1.1500e-08    3.185e-01    5.340e-01    0.000e+00    9.000e-01  
  1.1600e-08    3.140e-01    5.360e-01    0.000e+00    9.000e-01  
  1.1700e-08    3.095e-01    5.380e-01    0.000e+00    9.000e-01  
  1.1800e-08    3.050e-01    5.400e-01    0.000e+00    9.000e-01  
  1.1900e-08    2.833e-01    5.458e-01    0.000e+00    9.000e-01  
  1.2000e-08    2.590e-01    5.522e-01    0.000e+00    9.000e-01  
  1.2100e-08    2.347e-01    5.585e-01    0.000e+00    9.000e-01  
  1.2200e-08    2.104e-01    5.649e-01    0.000e+00    9.000e-01  
  1.2300e-08    1.861e-01    5.712e-01    0.000e+00    9.000e-01  
  1.2400e-08    1.618e-01    5.776e-01    0.000e+00    9.000e-01  
  1.2500e-08    1.375e-01    5.839e-01    0.000e+00    9.000e-01  
  1.2600e-08    7.971e-02    6.024e-01    0.000e+00    9.000e-01  
  1.2700e-08    3.414e-02    6.082e-01    0.000e+00    9.000e-01  
  1.2800e-08    2.096e-02    6.214e-01    0.000e+00    9.000e-01  
  1.2900e-08    1.631e-02    6.346e-01    0.000e+00    9.000e-01  
  1.3000e-08    1.354e-02    6.470e-01    0.000e+00    9.000e-01  
  1.3100e-08    1.193e-02    6.585e-01    0.000e+00    9.000e-01  
  1.3200e-08    1.034e-02    6.700e-01    0.000e+00    9.000e-01  
  1.3300e-08    9.266e-03    6.805e-01    0.000e+00    9.000e-01  
  1.3400e-08    8.541e-03    6.902e-01    0.000e+00    9.000e-01  
  1.3500e-08    7.815e-03    7.000e-01    0.000e+00    9.000e-01  
  1.3600e-08    7.089e-03    7.097e-01    0.000e+00    9.000e-01  
  1.3700e-08    6.472e-03    7.189e-01    0.000e+00    9.000e-01  
  1.3800e-08    6.183e-03    7.262e-01    0.000e+00    9.000e-01  
  1.3900e-08    5.895e-03    7.336e-01    0.000e+00    9.000e-01  
  1.4000e-08    5.606e-03    7.410e-01    0.000e+00    9.000e-01  
  1.4100e-08    5.318e-03    7.484e-01    0.000e+00    9.000e-01  
  1.4200e-08    5.029e-03    7.557e-01    0.000e+00    9.000e-01  
  1.4300e-08    4.741e-03    7.631e-01    0.000e+00    9.000e-01  
  1.4400e-08    4.452e-03    7.705e-01    0.000e+00    9.000e-01  
  1.4500e-08    4.260e-03    7.766e-01    0.000e+00    9.000e-01  
  1.4600e-08    4.130e-03    7.819e-01    0.000e+00    9.000e-01  
  1.4700e-08    4.001e-03    7.873e-01    0.000e+00    9.000e-01  
  1.4800e-08    3.871e-03    7.926e-01    0.000e+00    9.000e-01  
  1.4900e-08    3.741e-03    7.980e-01    0.000e+00    9.000e-01  
  1.5000e-08    3.611e-03    8.033e-01    0.000e+00    9.000e-01  
  1.5100e-08    1.647e-02    8.089e-01    9.000e-01    9.000e-01  
  1.5200e-08    3.420e-03    8.121e-01    9.000e-01    9.000e-01  
  1.5300e-08    3.359e-03    8.161e-01    9.000e-01    9.000e-01  
  1.5400e-08    3.270e-03    8.201e-01    9.000e-01    9.000e-01  
  1.5500e-08    3.203e-03    8.237e-01    9.000e-01    9.000e-01  
  1.5600e-08    3.151e-03    8.270e-01    9.000e-01    9.000e-01  
  1.5700e-08    3.100e-03    8.303e-01    9.000e-01    9.000e-01  
  1.5800e-08    3.048e-03    8.336e-01    9.000e-01    9.000e-01  
  1.5900e-08    2.997e-03    8.370e-01    9.000e-01    9.000e-01  
  1.6000e-08    2.945e-03    8.403e-01    9.000e-01    9.000e-01  
  1.6100e-08    2.910e-03    8.426e-01    9.000e-01    9.000e-01  
  1.6200e-08    2.880e-03    8.447e-01    9.000e-01    9.000e-01  
  1.6300e-08    2.849e-03    8.469e-01    9.000e-01    9.000e-01  
  1.6400e-08    2.818e-03    8.490e-01    9.000e-01    9.000e-01  
  1.6500e-08    2.787e-03    8.511e-01    9.000e-01    9.000e-01  
  1.6600e-08    2.756e-03    8.532e-01    9.000e-01    9.000e-01  
  1.6700e-08    2.726e-03    8.553e-01    9.000e-01    9.000e-01  
  1.6800e-08    2.695e-03    8.574e-01    9.000e-01    9.000e-01  
  1.6900e-08    2.664e-03    8.595e-01    9.000e-01    9.000e-01  
  1.7000e-08    2.633e-03    8.616e-01    9.000e-01    9.000e-01  
  1.7100e-08    2.602e-03    8.637e-01    9.000e-01    9.000e-01  
  1.7200e-08    2.571e-03    8.659e-01    9.000e-01    9.000e-01  
  1.7300e-08    2.541e-03    8.680e-01    9.000e-01    9.000e-01  
  1.7400e-08    2.510e-03    8.701e-01    9.000e-01    9.000e-01  
  1.7500e-08    2.479e-03    8.722e-01    9.000e-01    9.000e-01  
  1.7600e-08    8.742e-01    7.495e-01    9.000e-01    0.000e+00  
  1.7700e-08    8.994e-01    2.142e-03    9.000e-01    0.000e+00  
  1.7800e-08    8.996e-01    2.173e-03    9.000e-01    0.000e+00  
  1.7900e-08    8.998e-01    2.182e-03    9.000e-01    0.000e+00  
  1.8000e-08    8.999e-01    2.181e-03    9.000e-01    0.000e+00  
  1.8100e-08    8.999e-01    2.157e-03    9.000e-01    0.000e+00  
  1.8200e-08    9.000e-01    2.209e-03    9.000e-01    0.000e+00  
  1.8300e-08    9.000e-01    2.171e-03    9.000e-01    0.000e+00  
  1.8400e-08    9.000e-01    2.149e-03    9.000e-01    0.000e+00  
  1.8500e-08    9.000e-01    2.180e-03    9.000e-01    0.000e+00  
  1.8600e-08    9.000e-01    2.206e-03    9.000e-01    0.000e+00  
  1.8700e-08    9.000e-01    2.184e-03    9.000e-01    0.000e+00  
  1.8800e-08    9.000e-01    2.162e-03    9.000e-01    0.000e+00  
  1.8900e-08    9.000e-01    2.145e-03    9.000e-01    0.000e+00  
  1.9000e-08    9.000e-01    2.160e-03    9.000e-01    0.000e+00  
  1.9100e-08    9.000e-01    2.175e-03    9.000e-01    0.000e+00  
  1.9200e-08    9.000e-01    2.190e-03    9.000e-01    0.000e+00  
  1.9300e-08    9.000e-01    2.206e-03    9.000e-01    0.000e+00  
  1.9400e-08    9.000e-01    2.199e-03    9.000e-01    0.000e+00  
  1.9500e-08    9.000e-01    2.189e-03    9.000e-01    0.000e+00  
  1.9600e-08    9.000e-01    2.180e-03    9.000e-01    0.000e+00  
  1.9700e-08    9.000e-01    2.171e-03    9.000e-01    0.000e+00  
  1.9800e-08    9.000e-01    2.162e-03    9.000e-01    0.000e+00  
  1.9900e-08    9.000e-01    2.153e-03    9.000e-01    0.000e+00  
  2.0000e-08    9.000e-01    2.143e-03    9.000e-01    0.000e+00  
  2.0100e-08    6.556e-01    4.949e-03    0.000e+00    9.000e-01  
  2.0200e-08    6.654e-01    1.058e-02    0.000e+00    9.000e-01  
  2.0300e-08    6.688e-01    1.008e-02    0.000e+00    9.000e-01  
  2.0400e-08    6.702e-01    9.857e-03    0.000e+00    9.000e-01  
  2.0500e-08    6.701e-01    9.845e-03    0.000e+00    9.000e-01  
  2.0600e-08    6.698e-01    9.875e-03    0.000e+00    9.000e-01  
  2.0700e-08    6.692e-01    9.933e-03    0.000e+00    9.000e-01  
  2.0800e-08    6.686e-01    9.998e-03    0.000e+00    9.000e-01  
  2.0900e-08    6.680e-01    1.006e-02    0.000e+00    9.000e-01  
  2.1000e-08    6.676e-01    1.011e-02    0.000e+00    9.000e-01  
  2.1100e-08    6.671e-01    1.016e-02    0.000e+00    9.000e-01  
  2.1200e-08    6.667e-01    1.022e-02    0.000e+00    9.000e-01  
  2.1300e-08    6.665e-01    1.025e-02    0.000e+00    9.000e-01  
  2.1400e-08    6.663e-01    1.026e-02    0.000e+00    9.000e-01  
  2.1500e-08    6.662e-01    1.028e-02    0.000e+00    9.000e-01  
  2.1600e-08    6.660e-01    1.029e-02    0.000e+00    9.000e-01  
  2.1700e-08    6.659e-01    1.031e-02    0.000e+00    9.000e-01  
  2.1800e-08    6.657e-01    1.033e-02    0.000e+00    9.000e-01  
  2.1900e-08    6.657e-01    1.033e-02    0.000e+00    9.000e-01  
  2.2000e-08    6.657e-01    1.034e-02    0.000e+00    9.000e-01  
  2.2100e-08    6.656e-01    1.034e-02    0.000e+00    9.000e-01  
  2.2200e-08    6.656e-01    1.035e-02    0.000e+00    9.000e-01  
  2.2300e-08    6.656e-01    1.035e-02    0.000e+00    9.000e-01  
  2.2400e-08    6.656e-01    1.035e-02    0.000e+00    9.000e-01  
  2.2500e-08    6.655e-01    1.036e-02    0.000e+00    9.000e-01  
  2.2600e-08    6.656e-01    1.135e-02    0.000e+00    9.000e-01  
  2.2700e-08    6.655e-01    1.035e-02    0.000e+00    9.000e-01  
  2.2800e-08    6.655e-01    1.036e-02    0.000e+00    9.000e-01  
  2.2900e-08    6.655e-01    1.035e-02    0.000e+00    9.000e-01  
  2.3000e-08    6.655e-01    1.035e-02    0.000e+00    9.000e-01  
  2.3100e-08    6.655e-01    1.035e-02    0.000e+00    9.000e-01  
  2.3200e-08    6.655e-01    1.035e-02    0.000e+00    9.000e-01  
  2.3300e-08    6.655e-01    1.035e-02    0.000e+00    9.000e-01  
  2.3400e-08    6.655e-01    1.036e-02    0.000e+00    9.000e-01  
  2.3500e-08    6.655e-01    1.036e-02    0.000e+00    9.000e-01  
  2.3600e-08    6.655e-01    1.036e-02    0.000e+00    9.000e-01  
  2.3700e-08    6.655e-01    1.036e-02    0.000e+00    9.000e-01  
  2.3800e-08    6.655e-01    1.036e-02    0.000e+00    9.000e-01  
  2.3900e-08    6.655e-01    1.035e-02    0.000e+00    9.000e-01  
  2.4000e-08    6.655e-01    1.035e-02    0.000e+00    9.000e-01  
  2.4100e-08    6.655e-01    1.035e-02    0.000e+00    9.000e-01  
  2.4200e-08    6.655e-01    1.035e-02    0.000e+00    9.000e-01  
  2.4300e-08    6.655e-01    1.035e-02    0.000e+00    9.000e-01  
  2.4400e-08    6.655e-01    1.035e-02    0.000e+00    9.000e-01  
  2.4500e-08    6.655e-01    1.035e-02    0.000e+00    9.000e-01  
  2.4600e-08    6.655e-01    1.035e-02    0.000e+00    9.000e-01  
  2.4700e-08    6.655e-01    1.035e-02    0.000e+00    9.000e-01  
  2.4800e-08    6.655e-01    1.035e-02    0.000e+00    9.000e-01  
  2.4900e-08    6.655e-01    1.035e-02    0.000e+00    9.000e-01  
  2.5000e-08    6.655e-01    1.035e-02    0.000e+00    9.000e-01  
  2.5100e-08    6.655e-01    1.006e-02    0.000e+00    9.000e-01  
  2.5200e-08    6.656e-01    1.036e-02    0.000e+00    9.000e-01  
  2.5300e-08    6.655e-01    1.035e-02    0.000e+00    9.000e-01  
  2.5400e-08    6.655e-01    1.035e-02    0.000e+00    9.000e-01  
  2.5500e-08    6.655e-01    1.035e-02    0.000e+00    9.000e-01  
  2.5600e-08    6.655e-01    1.035e-02    0.000e+00    9.000e-01  
  2.5700e-08    6.655e-01    1.036e-02    0.000e+00    9.000e-01  
  2.5800e-08    6.655e-01    1.035e-02    0.000e+00    9.000e-01  
  2.5900e-08    6.655e-01    1.035e-02    0.000e+00    9.000e-01  
  2.6000e-08    6.655e-01    1.035e-02    0.000e+00    9.000e-01  
  2.6100e-08    6.655e-01    1.035e-02    0.000e+00    9.000e-01  
  2.6200e-08    6.655e-01    1.035e-02    0.000e+00    9.000e-01  
  2.6300e-08    6.655e-01    1.035e-02    0.000e+00    9.000e-01  
  2.6400e-08    6.655e-01    1.035e-02    0.000e+00    9.000e-01  
  2.6500e-08    6.655e-01    1.035e-02    0.000e+00    9.000e-01  
  2.6600e-08    6.655e-01    1.035e-02    0.000e+00    9.000e-01  
  2.6700e-08    6.655e-01    1.035e-02    0.000e+00    9.000e-01  
  2.6800e-08    6.655e-01    1.035e-02    0.000e+00    9.000e-01  
  2.6900e-08    6.655e-01    1.035e-02    0.000e+00    9.000e-01  
  2.7000e-08    6.655e-01    1.035e-02    0.000e+00    9.000e-01  
  2.7100e-08    6.655e-01    1.035e-02    0.000e+00    9.000e-01  
  2.7200e-08    6.655e-01    1.035e-02    0.000e+00    9.000e-01  
  2.7300e-08    6.655e-01    1.035e-02    0.000e+00    9.000e-01  
  2.7400e-08    6.655e-01    1.035e-02    0.000e+00    9.000e-01  
  2.7500e-08    6.655e-01    1.035e-02    0.000e+00    9.000e-01  
  2.7600e-08    4.239e-03   -3.773e-03    0.000e+00    0.000e+00  
  2.7700e-08    9.593e-04    5.530e-02    0.000e+00    0.000e+00  
  2.7800e-08    8.191e-04    1.145e-01    0.000e+00    0.000e+00  
  2.7900e-08    7.521e-04    1.715e-01    0.000e+00    0.000e+00  
  2.8000e-08    7.158e-04    2.238e-01    0.000e+00    0.000e+00  
  2.8100e-08    6.999e-04    2.720e-01    0.000e+00    0.000e+00  
  2.8200e-08    6.850e-04    3.124e-01    0.000e+00    0.000e+00  
  2.8300e-08    6.738e-04    3.515e-01    0.000e+00    0.000e+00  
  2.8400e-08    6.762e-04    3.866e-01    0.000e+00    0.000e+00  
  2.8500e-08    6.786e-04    4.216e-01    0.000e+00    0.000e+00  
  2.8600e-08    6.763e-04    4.498e-01    0.000e+00    0.000e+00  
  2.8700e-08    6.734e-04    4.772e-01    0.000e+00    0.000e+00  
  2.8800e-08    6.706e-04    5.046e-01    0.000e+00    0.000e+00  
  2.8900e-08    6.717e-04    5.256e-01    0.000e+00    0.000e+00  
  2.9000e-08    6.713e-04    5.429e-01    0.000e+00    0.000e+00  
  2.9100e-08    6.685e-04    5.544e-01    0.000e+00    0.000e+00  
  2.9200e-08    6.654e-04    5.646e-01    0.000e+00    0.000e+00  
  2.9300e-08    6.624e-04    5.743e-01    0.000e+00    0.000e+00  
  2.9400e-08    6.601e-04    5.782e-01    0.000e+00    0.000e+00  
  2.9500e-08    6.578e-04    5.821e-01    0.000e+00    0.000e+00  
  2.9600e-08    6.573e-04    5.863e-01    0.000e+00    0.000e+00  
  2.9700e-08    6.639e-04    5.944e-01    0.000e+00    0.000e+00  
  2.9800e-08    6.618e-04    6.093e-01    0.000e+00    0.000e+00  
  2.9900e-08    6.570e-04    6.242e-01    0.000e+00    0.000e+00  
  3.0000e-08    6.508e-04    6.379e-01    0.000e+00    0.000e+00  
  3.0100e-08   -1.190e-02    6.496e-01    0.000e+00    9.000e-01  
  3.0200e-08    1.127e-02    6.630e-01    0.000e+00    9.000e-01  
  3.0300e-08    9.770e-03    6.741e-01    0.000e+00    9.000e-01  
  3.0400e-08    8.811e-03    6.846e-01    0.000e+00    9.000e-01  
  3.0500e-08    8.037e-03    6.944e-01    0.000e+00    9.000e-01  
  3.0600e-08    7.472e-03    7.035e-01    0.000e+00    9.000e-01  
  3.0700e-08    6.907e-03    7.127e-01    0.000e+00    9.000e-01  
  3.0800e-08    6.342e-03    7.218e-01    0.000e+00    9.000e-01  
  3.0900e-08    5.976e-03    7.295e-01    0.000e+00    9.000e-01  
  3.1000e-08    5.760e-03    7.361e-01    0.000e+00    9.000e-01  
  3.1100e-08    5.544e-03    7.427e-01    0.000e+00    9.000e-01  
  3.1200e-08    5.328e-03    7.493e-01    0.000e+00    9.000e-01  
  3.1300e-08    5.112e-03    7.558e-01    0.000e+00    9.000e-01  
  3.1400e-08    4.896e-03    7.624e-01    0.000e+00    9.000e-01  
  3.1500e-08    4.680e-03    7.690e-01    0.000e+00    9.000e-01  
  3.1600e-08    4.463e-03    7.756e-01    0.000e+00    9.000e-01  
  3.1700e-08    4.247e-03    7.822e-01    0.000e+00    9.000e-01  
  3.1800e-08    4.031e-03    7.888e-01    0.000e+00    9.000e-01  
  3.1900e-08    3.815e-03    7.953e-01    0.000e+00    9.000e-01  
  3.2000e-08    3.665e-03    8.008e-01    0.000e+00    9.000e-01  
  3.2100e-08    3.580e-03    8.051e-01    0.000e+00    9.000e-01  
  3.2200e-08    3.495e-03    8.094e-01    0.000e+00    9.000e-01  
  3.2300e-08    3.409e-03    8.137e-01    0.000e+00    9.000e-01  
  3.2400e-08    3.324e-03    8.180e-01    0.000e+00    9.000e-01  
  3.2500e-08    3.239e-03    8.223e-01    0.000e+00    9.000e-01  
  3.2600e-08    3.117e-03    8.269e-01    0.000e+00    9.000e-01  
  3.2700e-08    3.112e-03    8.294e-01    0.000e+00    9.000e-01  
  3.2800e-08    3.056e-03    8.327e-01    0.000e+00    9.000e-01  
  3.2900e-08    3.002e-03    8.358e-01    0.000e+00    9.000e-01  
  3.3000e-08    2.958e-03    8.388e-01    0.000e+00    9.000e-01  
  3.3100e-08    2.913e-03    8.418e-01    0.000e+00    9.000e-01  
  3.3200e-08    2.876e-03    8.443e-01    0.000e+00    9.000e-01  
  3.3300e-08    2.839e-03    8.468e-01    0.000e+00    9.000e-01  
  3.3400e-08    2.801e-03    8.492e-01    0.000e+00    9.000e-01  
  3.3500e-08    2.764e-03    8.517e-01    0.000e+00    9.000e-01  
  3.3600e-08    2.727e-03    8.541e-01    0.000e+00    9.000e-01  
  3.3700e-08    2.690e-03    8.566e-01    0.000e+00    9.000e-01  
  3.3800e-08    2.668e-03    8.583e-01    0.000e+00    9.000e-01  
  3.3900e-08    2.648e-03    8.599e-01    0.000e+00    9.000e-01  
  3.4000e-08    2.628e-03    8.614e-01    0.000e+00    9.000e-01  
  3.4100e-08    2.608e-03    8.630e-01    0.000e+00    9.000e-01  
  3.4200e-08    2.588e-03    8.646e-01    0.000e+00    9.000e-01  
  3.4300e-08    2.568e-03    8.662e-01    0.000e+00    9.000e-01  
  3.4400e-08    2.549e-03    8.678e-01    0.000e+00    9.000e-01  
  3.4500e-08    2.529e-03    8.694e-01    0.000e+00    9.000e-01  
  3.4600e-08    2.509e-03    8.710e-01    0.000e+00    9.000e-01  
  3.4700e-08    2.489e-03    8.726e-01    0.000e+00    9.000e-01  
  3.4800e-08    2.469e-03    8.742e-01    0.000e+00    9.000e-01  
  3.4900e-08    2.449e-03    8.758e-01    0.000e+00    9.000e-01  
  3.5000e-08    2.429e-03    8.774e-01    0.000e+00    9.000e-01  
  3.5100e-08    2.420e-03    8.781e-01    0.000e+00    9.000e-01  
  3.5200e-08    2.411e-03    8.789e-01    0.000e+00    9.000e-01  
  3.5300e-08    2.402e-03    8.796e-01    0.000e+00    9.000e-01  
  3.5400e-08    2.393e-03    8.803e-01    0.000e+00    9.000e-01  
  3.5500e-08    2.385e-03    8.810e-01    0.000e+00    9.000e-01  
  3.5600e-08    2.376e-03    8.818e-01    0.000e+00    9.000e-01  
  3.5700e-08    2.367e-03    8.825e-01    0.000e+00    9.000e-01  
  3.5800e-08    2.358e-03    8.832e-01    0.000e+00    9.000e-01  
  3.5900e-08    2.349e-03    8.840e-01    0.000e+00    9.000e-01  
  3.6000e-08    2.340e-03    8.847e-01    0.000e+00    9.000e-01  
  3.6100e-08    2.334e-03    8.853e-01    0.000e+00    9.000e-01  
  3.6200e-08    2.327e-03    8.859e-01    0.000e+00    9.000e-01  
  3.6300e-08    2.321e-03    8.865e-01    0.000e+00    9.000e-01  
  3.6400e-08    2.314e-03    8.870e-01    0.000e+00    9.000e-01  
  3.6500e-08    2.307e-03    8.876e-01    0.000e+00    9.000e-01  
  3.6600e-08    2.301e-03    8.882e-01    0.000e+00    9.000e-01  
  3.6700e-08    2.294e-03    8.888e-01    0.000e+00    9.000e-01  
  3.6800e-08    2.288e-03    8.894e-01    0.000e+00    9.000e-01  
  3.6900e-08    2.284e-03    8.897e-01    0.000e+00    9.000e-01  
  3.7000e-08    2.281e-03    8.900e-01    0.000e+00    9.000e-01  
  3.7100e-08    2.277e-03    8.903e-01    0.000e+00    9.000e-01  
  3.7200e-08    2.274e-03    8.906e-01    0.000e+00    9.000e-01  
  3.7300e-08    2.271e-03    8.909e-01    0.000e+00    9.000e-01  
  3.7400e-08    2.267e-03    8.913e-01    0.000e+00    9.000e-01  
  3.7500e-08    2.264e-03    8.916e-01    0.000e+00    9.000e-01  
  3.7600e-08    2.261e-03    8.919e-01    0.000e+00    9.000e-01  
  3.7700e-08    2.258e-03    8.922e-01    0.000e+00    9.000e-01  
  3.7800e-08    2.254e-03    8.925e-01    0.000e+00    9.000e-01  
  3.7900e-08    2.251e-03    8.928e-01    0.000e+00    9.000e-01  
  3.8000e-08    2.248e-03    8.931e-01    0.000e+00    9.000e-01  
  3.8100e-08    2.244e-03    8.934e-01    0.000e+00    9.000e-01  
  3.8200e-08    2.241e-03    8.937e-01    0.000e+00    9.000e-01  
  3.8300e-08    2.238e-03    8.940e-01    0.000e+00    9.000e-01  
  3.8400e-08    2.235e-03    8.943e-01    0.000e+00    9.000e-01  
  3.8500e-08    2.231e-03    8.946e-01    0.000e+00    9.000e-01  
  3.8600e-08    2.228e-03    8.949e-01    0.000e+00    9.000e-01  
  3.8700e-08    2.225e-03    8.952e-01    0.000e+00    9.000e-01  
  3.8800e-08    2.221e-03    8.955e-01    0.000e+00    9.000e-01  
  3.8900e-08    2.220e-03    8.957e-01    0.000e+00    9.000e-01  
  3.9000e-08    2.219e-03    8.958e-01    0.000e+00    9.000e-01  
  3.9100e-08    2.217e-03    8.959e-01    0.000e+00    9.000e-01  
  3.9200e-08    2.216e-03    8.960e-01    0.000e+00    9.000e-01  
  3.9300e-08    2.215e-03    8.961e-01    0.000e+00    9.000e-01  
  3.9400e-08    2.214e-03    8.962e-01    0.000e+00    9.000e-01  
  3.9500e-08    2.213e-03    8.964e-01    0.000e+00    9.000e-01  
  3.9600e-08    2.211e-03    8.965e-01    0.000e+00    9.000e-01  
  3.9700e-08    2.210e-03    8.966e-01    0.000e+00    9.000e-01  
  3.9800e-08    2.209e-03    8.967e-01    0.000e+00    9.000e-01  
  3.9900e-08    2.208e-03    8.968e-01    0.000e+00    9.000e-01  
  4.0000e-08    2.207e-03    8.969e-01    0.000e+00    9.000e-01  
y
-----------------------------------------------

          ***** job concluded
1****** HSPICE -- H-2013.03 64-BIT (Mar  7 2013) win64 ******                   
 ******  
 'inverter'

  ******  job statistics summary tnom=  25.000 temp=  25.000 *****

  ******  HSPICE Threads Information  ******

  Command Line Threads Count :     1
  Available CPU Count        :     4
  Actual Threads Count       :     1


  ******  Circuit Statistics  ******
  # nodes       =     277 # elements   =     644
  # resistors   =     124 # capacitors =     290 # inductors   =       0
  # mutual_inds =       0 # vccs       =      80 # vcvs        =     124
  # cccs        =       0 # ccvs       =       0 # volt_srcs   =      26
  # curr_srcs   =       0 # diodes     =       0 # bjts        =       0
  # jfets       =       0 # mosfets    =       0 # U elements  =       0
  # T elements  =       0 # W elements =       0 # B elements  =       0
  # S elements  =       0 # P elements =       0 # va device   =       0
  # vector_srcs =       0 # N elements =       0


  ******  Runtime Statistics (seconds)  ******

  analysis           time    # points   tot. iter  conv.iter
  op point           0.30           1          24
  transient         10.59         401        1025         265 rev=        28
  readin             0.05
  errchk             0.22
  setup              0.00
  output             0.00


           peak memory used         46.60 megabytes
           total cpu time           11.17 seconds
           total elapsed time       11.18 seconds
           job started at     00:44:14 01/24/2018
           job ended   at     00:44:25 01/24/2018


  lic: Release hspice token(s) 
 lic: total license checkout elapse time:        0.02(s)
