 ****** HSPICE -- H-2013.03 64-BIT (Mar  7 2013) win64 ******                   
  Copyright (C) 2013 Synopsys, Inc. All Rights Reserved.                        
  Unpublished-rights reserved under US copyright laws.
  This program is protected by law and is subject to the
  terms and conditions of the license agreement from Synopsys.
  Use of this program is your acceptance to be bound by the
  license agreement. HSPICE is the trademark of Synopsys, Inc.
  Input File: sram32nmread.sp                                                   
  Command line options: -i sram32nmread.sp -o sram32nmread.lis
  lic:  
  lic: FLEXlm: v10.9.8 
  lic: USER:   Dell                 HOSTNAME: DESKTOP-O3DHVG1 
  lic: HOSTID: "28f10e041fd4 a0d37a293ca4 a0d37a293ca5" PID:      13044 
  lic: Using FLEXlm license file: 
  lic: C:\synopsys\Hspice_H-2013.03\lic.dat\lic.lic 
  lic: Checkout 1 hspice 
  lic: License/Maintenance for hspice will expire on 31-dec-2019/2019.12 
  lic: NODE LOCKED license on hostid "28f10e041fd4 a0d37a293ca4 a0d37a293ca5" 
  lic:   
 Init: read install configuration file: C:\synopsys\Hspice_H-2013.03\meta.cfg
 scientific notation:
 a=10**-18  f=10**-15  p=10**-12  n=10**-9  u=10**-6
 m=10**-3   k=10**3    x=10**6    g=10**9 
1****** HSPICE -- H-2013.03 64-BIT (Mar  7 2013) win64 ******                   
 ******  
 'inverter'

  ******  circuit name directory
 circuit number to circuit name directory
   number circuitname                     definition         multiplier
        0 main circuit


 circuit parameter definitions
  parameter          =  value 

     0:temp                                                    = 2.700e+01      
     0:m_cnt                                                   = 1.000e+00      
     0:wg                                                      = 4.000e-09      
     0:cb                                                      = 4.000e-11      
     0:lg                                                      = 3.200e-08      
     0:lgef                                                    = 1.000e-07      
     0:vfn                                                     = 0.000e+00      
     0:vfp                                                     = 0.000e+00      
     0:m                                                       = 0.000e+00      
     0:n                                                       = 1.900e+01      
     0:hox                                                     = 4.000e-09      
     1:tox                                                     = 4.000e-09      
     1:csub                                                    = 4.000e-11      
     1:pitch                                                   = 2.000e-08      
     1:n1                                                      = 0.000e+00      
     1:n2                                                      = 1.900e+01      
     1:vfbp                                                    = 0.000e+00      
     1:kgate                                                   = 1.600e+01      
     1:dout                                                    = 0.000e+00      
     1:sout                                                    = 0.000e+00      
     1:tubes                                                   = 1.000e+00      
     1:lch                                                     = 3.200e-08      
     1:lgeff                                                   = 1.000e-07      
     1:lss                                                     = 3.200e-08      
     1:ldd                                                     = 3.200e-08      
     2:tox                                                     = 4.000e-09      
     2:csub                                                    = 4.000e-11      
     2:pitch                                                   = 2.000e-08      
     2:n1                                                      = 0.000e+00      
     2:n2                                                      = 1.000e+01      
     2:vfbp                                                    = 0.000e+00      
     2:kgate                                                   = 1.600e+01      
     2:dout                                                    = 0.000e+00      
     2:sout                                                    = 0.000e+00      
     2:tubes                                                   = 1.000e+00      
     2:lch                                                     = 3.200e-08      
     2:lgeff                                                   = 1.000e-07      
     2:lss                                                     = 3.200e-08      
     2:ldd                                                     = 3.200e-08      
     3:tox                                                     = 4.000e-09      
     3:csub                                                    = 4.000e-11      
     3:pitch                                                   = 2.000e-08      
     3:n1                                                      = 0.000e+00      
     3:n2                                                      = 1.300e+01      
     3:vfbp                                                    = 0.000e+00      
     3:kgate                                                   = 1.600e+01      
     3:dout                                                    = 0.000e+00      
     3:sout                                                    = 0.000e+00      
     3:tubes                                                   = 1.000e+00      
     3:lch                                                     = 3.200e-08      
     3:lgeff                                                   = 1.000e-07      
     3:lss                                                     = 3.200e-08      
     3:ldd                                                     = 3.200e-08      
     4:tox                                                     = 4.000e-09      
     4:csub                                                    = 4.000e-11      
     4:vfbn                                                    = 0.000e+00      
     4:pitch                                                   = 2.000e-08      
     4:n1                                                      = 0.000e+00      
     4:n2                                                      = 1.300e+01      
     4:kgate                                                   = 1.600e+01      
     4:dout                                                    = 0.000e+00      
     4:sout                                                    = 0.000e+00      
     4:tubes                                                   = 1.000e+00      
     4:lch                                                     = 3.200e-08      
     4:lgeff                                                   = 1.000e-07      
     4:lss                                                     = 3.200e-08      
     4:ldd                                                     = 3.200e-08      
     5:tox                                                     = 4.000e-09      
     5:csub                                                    = 4.000e-11      
     5:vfbn                                                    = 0.000e+00      
     5:pitch                                                   = 2.000e-08      
     5:n1                                                      = 0.000e+00      
     5:n2                                                      = 1.900e+01      
     5:kgate                                                   = 1.600e+01      
     5:dout                                                    = 0.000e+00      
     5:sout                                                    = 0.000e+00      
     5:tubes                                                   = 1.000e+00      
     5:lch                                                     = 3.200e-08      
     5:lgeff                                                   = 1.000e-07      
     5:lss                                                     = 3.200e-08      
     5:ldd                                                     = 3.200e-08      
     6:tox                                                     = 4.000e-09      
     6:csub                                                    = 4.000e-11      
     6:vfbn                                                    = 0.000e+00      
     6:pitch                                                   = 2.000e-08      
     6:n1                                                      = 0.000e+00      
     6:n2                                                      = 1.000e+01      
     6:kgate                                                   = 1.600e+01      
     6:dout                                                    = 0.000e+00      
     6:sout                                                    = 0.000e+00      
     6:tubes                                                   = 1.000e+00      
     6:lch                                                     = 3.200e-08      
     6:lgeff                                                   = 1.000e-07      
     6:lss                                                     = 3.200e-08      
     6:ldd                                                     = 3.200e-08      




 constants  - tnom         kt           vt           gapsi        ni
            2.9815e+02   4.1163e-21   2.5692e-02   1.1156e+00   1.2565e+16 
  **info** (sram32nmread.sp:133) DC voltage reset to initial transient source value              in source        0:vrwl                new dc=  0.0000D+00

 **warning**  associated with encrypted block(s) were suppressed due to encrypted content

1****** HSPICE -- H-2013.03 64-BIT (Mar  7 2013) win64 ******                   
 ******  
 'inverter'

  ******  circuit element summary tnom=  25.000 temp=  25.000 *****


 **** independent sources

     name         node1        node2      dc volt    ac mag    ac phase    type
  vdd  vdd               0                  9.000e-01  0.000e+00  0.000e+00 dc   
  vrwl  rwl               0                  0.000e+00  0.000e+00  0.000e+00 pwl  
                time        value

                 0.000e+00    0.000e+00
                 1.250e-08    0.000e+00
                 1.260e-08    9.000e-01
                 1.500e-08    9.000e-01
                 1.510e-08    0.000e+00
                 2.250e-08    0.000e+00
                 2.260e-08    9.000e-01
                 2.500e-08    9.000e-01
                 2.510e-08    0.000e+00
                 3.250e-08    0.000e+00
                 3.260e-08    9.000e-01
                 3.500e-08    9.000e-01


  vrwlb  rwlb              0                  9.000e-01  0.000e+00  0.000e+00 pwl  
                time        value

                 0.000e+00    9.000e-01
                 1.250e-08    9.000e-01
                 1.260e-08    0.000e+00
                 1.500e-08    0.000e+00
                 1.510e-08    9.000e-01
                 2.250e-08    9.000e-01
                 2.260e-08    0.000e+00
                 2.500e-08    0.000e+00
                 2.510e-08    9.000e-01
                 3.250e-08    9.000e-01
                 3.260e-08    0.000e+00
                 3.500e-08    0.000e+00


  vwbl  wbl               0                  0.000e+00  0.000e+00  0.000e+00 pwl  
                time        value

                 0.000e+00    0.000e+00
                 5.000e-09    0.000e+00
                 5.100e-09    4.500e-01
                 1.000e-08    4.500e-01
                 1.010e-08    0.000e+00
                 1.500e-08    0.000e+00
                 1.510e-08    9.000e-01
                 2.000e-08    9.000e-01
                 2.010e-08    0.000e+00
                 3.000e-08    0.000e+00
                 4.000e-08    0.000e+00


  vwwl  wwl               0                  0.000e+00  0.000e+00  0.000e+00 pwl  
                time        value

                 0.000e+00    0.000e+00
                 7.500e-09    0.000e+00
                 7.600e-09    9.000e-01
                 1.000e-08    9.000e-01
                 1.010e-08    0.000e+00
                 1.750e-08    0.000e+00
                 1.760e-08    9.000e-01
                 2.000e-08    9.000e-01
                 2.010e-08    0.000e+00
                 2.750e-08    0.000e+00
                 2.760e-08    9.000e-01
                 3.000e-08    9.000e-01
                 3.010e-08    0.000e+00
                 4.000e-08    0.000e+00


  vwwlb  wwlb              0                  9.000e-01  0.000e+00  0.000e+00 pwl  
                time        value

                 0.000e+00    9.000e-01
                 7.500e-09    9.000e-01
                 7.600e-09    0.000e+00
                 1.000e-08    0.000e+00
                 1.010e-08    9.000e-01
                 1.750e-08    9.000e-01
                 1.760e-08    0.000e+00
                 2.000e-08    0.000e+00
                 2.010e-08    9.000e-01
                 2.750e-08    9.000e-01
                 2.760e-08    0.000e+00
                 3.000e-08    0.000e+00
                 3.010e-08    9.000e-01
                 4.000e-08    9.000e-01




 **** subcircuit calls
    name        subcircuit         external nodes


         0:xcnt7    pcnfet          0:vdd         0:q           0:n2      
                               0:n2      


         0:xcnt8    pcnfet          0:vdd         0:q           0:qb      
                               0:qb      


         0:xcnt6    pcnfet          0:qb          0:qb          0:n2      
                               0:n2      


         0:xcnt5    ncnfet          0:qb          0:qb          0:n1      
                               0:n1      


         0:xcnt3    ncnfet          0:n1          0:q           0:0       
                               0:0       


         0:xcnt4    ncnfet          0:qb          0:q           0:0       
                               0:0       


         0:xcnt14   pcnfet          0:vdd         0:qb          0:q       
                               0:q       


         0:xcnt13   pcnfet          0:vdd         0:qb          0:n4      
                               0:n4      


         0:xcnt12   pcnfet          0:q           0:q           0:n4      
                               0:n4      


         0:xcnt11   ncnfet          0:q           0:q           0:n3      
                               0:n3      


         0:xcnt10   ncnfet          0:q           0:qb          0:0       
                               0:0       


         0:xcnt9    ncnfet          0:n3          0:qb          0:0       
                               0:0       


         0:xcnt2    pcnfet          0:q           0:wwlb        0:wbl     
                               0:wbl     


         0:xcnt1    ncnfet          0:wbl         0:wwl         0:q       
                               0:q       


         0:xcnt16   pcnfet          0:vdd         0:qb          0:n5      
                               0:n5      


         0:xcnt15   ncnfet          0:n5          0:qb          0:0       
                               0:0       


         0:xcnt18   pcnfet          0:rbl         0:rwlb        0:n5      
                               0:n5      


         0:xcnt17   ncnfet          0:n5          0:rwl         0:rbl     
                               0:rbl     


  
1****** HSPICE -- H-2013.03 64-BIT (Mar  7 2013) win64 ******                   
 ******  
 'inverter'

  ******  element node table
                                                                                      
 0                vdd              vrwl             vrwlb            vwbl             
                  vwwl             vwwlb                                              
 rwl              vrwl                                                                
 rwlb             vrwlb                                                               
 vdd              vdd                                                                 
 wbl              vwbl                                                                
 wwl              vwwl                                                                
 wwlb             vwwlb                                                               
  **warning** PIVOT option setting is simplified, pivot = 13 is obsolete,
              automatically switch to pivot = 1.
 *****************************************************************
 ******  option summary
 ******
 runlvl  = 3         bypass  = 2         
  Opening plot unit= 79
 file=sram32nmread.pa0

1****** HSPICE -- H-2013.03 64-BIT (Mar  7 2013) win64 ******                   
 ******  
 'inverter'

  ******  operating point information tnom=  25.000 temp=  25.000 *****
 ***** operating point status is voltage   simulation time is   0.000e+00
     node    =voltage       node    =voltage       node    =voltage

 + 0:n1      = 1.083e-02  0:n2      = 8.891e-01  0:n3      = 1.081e-02
 + 0:n4      = 8.891e-01  0:n5      = 4.649e-03  0:q       = 4.496e-01
 + 0:qb      = 4.497e-01  0:rbl     = 4.593e-03  0:rwl     = 0.000e+00
 + 0:rwlb    = 9.000e-01  0:vdd     = 9.000e-01  0:wbl     = 0.000e+00
 + 0:wwl     = 0.000e+00  0:wwlb    = 9.000e-01

 ******  
 'inverter'

  ******  transient analysis tnom=  25.000 temp=  25.000 *****
x

        time    voltage    
                    rbl    
  0.0000e+00    4.593e-03  
  1.0000e-10    4.593e-03  
  2.0000e-10    4.593e-03  
  3.0000e-10    4.593e-03  
  4.0000e-10    4.593e-03  
  5.0000e-10    4.593e-03  
  6.0000e-10    4.593e-03  
  7.0000e-10    4.593e-03  
  8.0000e-10    4.593e-03  
  9.0000e-10    4.593e-03  
  1.0000e-09    4.593e-03  
  1.1000e-09    4.593e-03  
  1.2000e-09    4.593e-03  
  1.3000e-09    4.593e-03  
  1.4000e-09    4.593e-03  
  1.5000e-09    4.593e-03  
  1.6000e-09    4.593e-03  
  1.7000e-09    4.593e-03  
  1.8000e-09    4.593e-03  
  1.9000e-09    4.593e-03  
  2.0000e-09    4.593e-03  
  2.1000e-09    4.593e-03  
  2.2000e-09    4.593e-03  
  2.3000e-09    4.593e-03  
  2.4000e-09    4.593e-03  
  2.5000e-09    4.593e-03  
  2.6000e-09    4.593e-03  
  2.7000e-09    4.593e-03  
  2.8000e-09    4.593e-03  
  2.9000e-09    4.593e-03  
  3.0000e-09    4.593e-03  
  3.1000e-09    4.593e-03  
  3.2000e-09    4.593e-03  
  3.3000e-09    4.593e-03  
  3.4000e-09    4.593e-03  
  3.5000e-09    4.593e-03  
  3.6000e-09    4.593e-03  
  3.7000e-09    4.593e-03  
  3.8000e-09    4.593e-03  
  3.9000e-09    4.593e-03  
  4.0000e-09    4.593e-03  
  4.1000e-09    4.593e-03  
  4.2000e-09    4.593e-03  
  4.3000e-09    4.593e-03  
  4.4000e-09    4.593e-03  
  4.5000e-09    4.593e-03  
  4.6000e-09    4.593e-03  
  4.7000e-09    4.593e-03  
  4.8000e-09    4.593e-03  
  4.9000e-09    4.593e-03  
  5.0000e-09    4.593e-03  
  5.1000e-09    4.596e-03  
  5.2000e-09    4.601e-03  
  5.3000e-09    4.595e-03  
  5.4000e-09    4.594e-03  
  5.5000e-09    4.594e-03  
  5.6000e-09    4.594e-03  
  5.7000e-09    4.593e-03  
  5.8000e-09    4.593e-03  
  5.9000e-09    4.593e-03  
  6.0000e-09    4.593e-03  
  6.1000e-09    4.593e-03  
  6.2000e-09    4.593e-03  
  6.3000e-09    4.593e-03  
  6.4000e-09    4.593e-03  
  6.5000e-09    4.593e-03  
  6.6000e-09    4.593e-03  
  6.7000e-09    4.593e-03  
  6.8000e-09    4.593e-03  
  6.9000e-09    4.594e-03  
  7.0000e-09    4.594e-03  
  7.1000e-09    4.594e-03  
  7.2000e-09    4.594e-03  
  7.3000e-09    4.594e-03  
  7.4000e-09    4.594e-03  
  7.5000e-09    4.594e-03  
  7.6000e-09    4.596e-03  
  7.7000e-09    4.601e-03  
  7.8000e-09    4.597e-03  
  7.9000e-09    4.596e-03  
  8.0000e-09    4.596e-03  
  8.1000e-09    4.595e-03  
  8.2000e-09    4.595e-03  
  8.3000e-09    4.595e-03  
  8.4000e-09    4.595e-03  
  8.5000e-09    4.595e-03  
  8.6000e-09    4.595e-03  
  8.7000e-09    4.595e-03  
  8.8000e-09    4.596e-03  
  8.9000e-09    4.596e-03  
  9.0000e-09    4.596e-03  
  9.1000e-09    4.596e-03  
  9.2000e-09    4.596e-03  
  9.3000e-09    4.596e-03  
  9.4000e-09    4.597e-03  
  9.5000e-09    4.597e-03  
  9.6000e-09    4.596e-03  
  9.7000e-09    4.596e-03  
  9.8000e-09    4.596e-03  
  9.9000e-09    4.596e-03  
  1.0000e-08    4.595e-03  
  1.0100e-08    4.574e-03  
  1.0200e-08    4.575e-03  
  1.0300e-08    4.587e-03  
  1.0400e-08    4.592e-03  
  1.0500e-08    4.593e-03  
  1.0600e-08    4.594e-03  
  1.0700e-08    4.595e-03  
  1.0800e-08    4.595e-03  
  1.0900e-08    4.595e-03  
  1.1000e-08    4.594e-03  
  1.1100e-08    4.594e-03  
  1.1200e-08    4.594e-03  
  1.1300e-08    4.594e-03  
  1.1400e-08    4.593e-03  
  1.1500e-08    4.593e-03  
  1.1600e-08    4.593e-03  
  1.1700e-08    4.593e-03  
  1.1800e-08    4.592e-03  
  1.1900e-08    4.592e-03  
  1.2000e-08    4.592e-03  
  1.2100e-08    4.592e-03  
  1.2200e-08    4.593e-03  
  1.2300e-08    4.593e-03  
  1.2400e-08    4.594e-03  
  1.2500e-08    4.594e-03  
  1.2600e-08    2.963e-01  
  1.2700e-08    2.799e-01  
  1.2800e-08    2.634e-01  
  1.2900e-08    2.463e-01  
  1.3000e-08    2.293e-01  
  1.3100e-08    2.118e-01  
  1.3200e-08    1.942e-01  
  1.3300e-08    1.766e-01  
  1.3400e-08    1.590e-01  
  1.3500e-08    1.414e-01  
  1.3600e-08    1.239e-01  
  1.3700e-08    1.063e-01  
  1.3800e-08    8.869e-02  
  1.3900e-08    7.604e-02  
  1.4000e-08    6.647e-02  
  1.4100e-08    5.690e-02  
  1.4200e-08    4.733e-02  
  1.4300e-08    3.776e-02  
  1.4400e-08    2.818e-02  
  1.4500e-08    1.861e-02  
  1.4600e-08    9.040e-03  
  1.4700e-08    6.697e-03  
  1.4800e-08    5.984e-03  
  1.4900e-08    5.271e-03  
  1.5000e-08    4.558e-03  
  1.5100e-08   -1.086e-01  
  1.5200e-08   -6.959e-02  
  1.5300e-08   -5.966e-02  
  1.5400e-08   -5.468e-02  
  1.5500e-08   -5.107e-02  
  1.5600e-08   -4.794e-02  
  1.5700e-08   -4.524e-02  
  1.5800e-08   -4.301e-02  
  1.5900e-08   -4.077e-02  
  1.6000e-08   -3.853e-02  
  1.6100e-08   -3.680e-02  
  1.6200e-08   -3.537e-02  
  1.6300e-08   -3.395e-02  
  1.6400e-08   -3.252e-02  
  1.6500e-08   -3.109e-02  
  1.6600e-08   -2.966e-02  
  1.6700e-08   -2.823e-02  
  1.6800e-08   -2.682e-02  
  1.6900e-08   -2.594e-02  
  1.7000e-08   -2.506e-02  
  1.7100e-08   -2.418e-02  
  1.7200e-08   -2.330e-02  
  1.7300e-08   -2.242e-02  
  1.7400e-08   -2.154e-02  
  1.7500e-08   -2.065e-02  
  1.7600e-08    5.053e-01  
  1.7700e-08    5.059e-01  
  1.7800e-08    5.065e-01  
  1.7900e-08    5.071e-01  
  1.8000e-08    5.076e-01  
  1.8100e-08    5.082e-01  
  1.8200e-08    5.088e-01  
  1.8300e-08    5.094e-01  
  1.8400e-08    5.100e-01  
  1.8500e-08    5.106e-01  
  1.8600e-08    5.112e-01  
  1.8700e-08    5.118e-01  
  1.8800e-08    5.124e-01  
  1.8900e-08    5.130e-01  
  1.9000e-08    5.136e-01  
  1.9100e-08    5.142e-01  
  1.9200e-08    5.148e-01  
  1.9300e-08    5.154e-01  
  1.9400e-08    5.160e-01  
  1.9500e-08    5.166e-01  
  1.9600e-08    5.172e-01  
  1.9700e-08    5.178e-01  
  1.9800e-08    5.184e-01  
  1.9900e-08    5.190e-01  
  2.0000e-08    5.196e-01  
  2.0100e-08    5.201e-01  
  2.0200e-08    5.207e-01  
  2.0300e-08    5.213e-01  
  2.0400e-08    5.219e-01  
  2.0500e-08    5.225e-01  
  2.0600e-08    5.231e-01  
  2.0700e-08    5.237e-01  
  2.0800e-08    5.243e-01  
  2.0900e-08    5.249e-01  
  2.1000e-08    5.255e-01  
  2.1100e-08    5.261e-01  
  2.1200e-08    5.267e-01  
  2.1300e-08    5.273e-01  
  2.1400e-08    5.278e-01  
  2.1500e-08    5.284e-01  
  2.1600e-08    5.290e-01  
  2.1700e-08    5.296e-01  
  2.1800e-08    5.302e-01  
  2.1900e-08    5.308e-01  
  2.2000e-08    5.314e-01  
  2.2100e-08    5.320e-01  
  2.2200e-08    5.326e-01  
  2.2300e-08    5.332e-01  
  2.2400e-08    5.338e-01  
  2.2500e-08    5.344e-01  
  2.2600e-08    8.950e-01  
  2.2700e-08    9.000e-01  
  2.2800e-08    9.000e-01  
  2.2900e-08    9.000e-01  
  2.3000e-08    9.001e-01  
  2.3100e-08    9.000e-01  
  2.3200e-08    9.000e-01  
  2.3300e-08    9.000e-01  
  2.3400e-08    8.999e-01  
  2.3500e-08    8.999e-01  
  2.3600e-08    8.999e-01  
  2.3700e-08    9.000e-01  
  2.3800e-08    9.000e-01  
  2.3900e-08    9.000e-01  
  2.4000e-08    9.000e-01  
  2.4100e-08    9.000e-01  
  2.4200e-08    9.000e-01  
  2.4300e-08    9.001e-01  
  2.4400e-08    9.001e-01  
  2.4500e-08    9.001e-01  
  2.4600e-08    9.000e-01  
  2.4700e-08    9.000e-01  
  2.4800e-08    9.000e-01  
  2.4900e-08    8.999e-01  
  2.5000e-08    8.999e-01  
  2.5100e-08    8.442e-01  
  2.5200e-08    8.442e-01  
  2.5300e-08    8.446e-01  
  2.5400e-08    8.449e-01  
  2.5500e-08    8.453e-01  
  2.5600e-08    8.457e-01  
  2.5700e-08    8.461e-01  
  2.5800e-08    8.464e-01  
  2.5900e-08    8.468e-01  
  2.6000e-08    8.472e-01  
  2.6100e-08    8.476e-01  
  2.6200e-08    8.479e-01  
  2.6300e-08    8.483e-01  
  2.6400e-08    8.487e-01  
  2.6500e-08    8.490e-01  
  2.6600e-08    8.494e-01  
  2.6700e-08    8.498e-01  
  2.6800e-08    8.501e-01  
  2.6900e-08    8.505e-01  
  2.7000e-08    8.509e-01  
  2.7100e-08    8.512e-01  
  2.7200e-08    8.516e-01  
  2.7300e-08    8.519e-01  
  2.7400e-08    8.523e-01  
  2.7500e-08    8.526e-01  
  2.7600e-08    3.248e-01  
  2.7700e-08    3.238e-01  
  2.7800e-08    3.227e-01  
  2.7900e-08    3.217e-01  
  2.8000e-08    3.206e-01  
  2.8100e-08    3.195e-01  
  2.8200e-08    3.185e-01  
  2.8300e-08    3.175e-01  
  2.8400e-08    3.165e-01  
  2.8500e-08    3.156e-01  
  2.8600e-08    3.146e-01  
  2.8700e-08    3.137e-01  
  2.8800e-08    3.128e-01  
  2.8900e-08    3.119e-01  
  2.9000e-08    3.110e-01  
  2.9100e-08    3.101e-01  
  2.9200e-08    3.092e-01  
  2.9300e-08    3.083e-01  
  2.9400e-08    3.075e-01  
  2.9500e-08    3.067e-01  
  2.9600e-08    3.059e-01  
  2.9700e-08    3.051e-01  
  2.9800e-08    3.043e-01  
  2.9900e-08    3.035e-01  
  3.0000e-08    3.027e-01  
  3.0100e-08    3.019e-01  
  3.0200e-08    3.011e-01  
  3.0300e-08    3.004e-01  
  3.0400e-08    2.997e-01  
  3.0500e-08    2.989e-01  
  3.0600e-08    2.982e-01  
  3.0700e-08    2.975e-01  
  3.0800e-08    2.968e-01  
  3.0900e-08    2.962e-01  
  3.1000e-08    2.955e-01  
  3.1100e-08    2.948e-01  
  3.1200e-08    2.941e-01  
  3.1300e-08    2.934e-01  
  3.1400e-08    2.928e-01  
  3.1500e-08    2.921e-01  
  3.1600e-08    2.914e-01  
  3.1700e-08    2.908e-01  
  3.1800e-08    2.902e-01  
  3.1900e-08    2.896e-01  
  3.2000e-08    2.889e-01  
  3.2100e-08    2.883e-01  
  3.2200e-08    2.877e-01  
  3.2300e-08    2.871e-01  
  3.2400e-08    2.864e-01  
  3.2500e-08    2.858e-01  
  3.2600e-08    1.346e-03  
  3.2700e-08    5.976e-05  
  3.2800e-08    6.050e-05  
  3.2900e-08    5.440e-05  
  3.3000e-08    5.589e-05  
  3.3100e-08    5.776e-05  
  3.3200e-08    5.963e-05  
  3.3300e-08    6.150e-05  
  3.3400e-08    6.337e-05  
  3.3500e-08    6.420e-05  
  3.3600e-08    6.344e-05  
  3.3700e-08    6.269e-05  
  3.3800e-08    6.194e-05  
  3.3900e-08    6.118e-05  
  3.4000e-08    6.043e-05  
  3.4100e-08    5.968e-05  
  3.4200e-08    5.892e-05  
  3.4300e-08    5.817e-05  
  3.4400e-08    5.742e-05  
  3.4500e-08    5.666e-05  
  3.4600e-08    5.591e-05  
  3.4700e-08    5.516e-05  
  3.4800e-08    5.440e-05  
  3.4900e-08    5.897e-05  
  3.5000e-08    6.394e-05  
  3.5100e-08    6.249e-05  
  3.5200e-08    6.104e-05  
  3.5300e-08    5.959e-05  
  3.5400e-08    5.945e-05  
  3.5500e-08    5.943e-05  
  3.5600e-08    5.941e-05  
  3.5700e-08    5.939e-05  
  3.5800e-08    5.937e-05  
  3.5900e-08    5.936e-05  
  3.6000e-08    5.934e-05  
  3.6100e-08    5.932e-05  
  3.6200e-08    5.930e-05  
  3.6300e-08    5.929e-05  
  3.6400e-08    5.929e-05  
  3.6500e-08    5.930e-05  
  3.6600e-08    5.931e-05  
  3.6700e-08    5.932e-05  
  3.6800e-08    5.933e-05  
  3.6900e-08    5.934e-05  
  3.7000e-08    5.935e-05  
  3.7100e-08    5.936e-05  
  3.7200e-08    5.937e-05  
  3.7300e-08    5.937e-05  
  3.7400e-08    5.938e-05  
  3.7500e-08    5.939e-05  
  3.7600e-08    5.940e-05  
  3.7700e-08    5.941e-05  
  3.7800e-08    5.942e-05  
  3.7900e-08    5.943e-05  
  3.8000e-08    5.944e-05  
  3.8100e-08    5.945e-05  
  3.8200e-08    5.945e-05  
  3.8300e-08    5.946e-05  
  3.8400e-08    5.945e-05  
  3.8500e-08    5.944e-05  
  3.8600e-08    5.944e-05  
  3.8700e-08    5.943e-05  
  3.8800e-08    5.942e-05  
  3.8900e-08    5.941e-05  
  3.9000e-08    5.940e-05  
  3.9100e-08    5.939e-05  
  3.9200e-08    5.938e-05  
  3.9300e-08    5.938e-05  
  3.9400e-08    5.937e-05  
  3.9500e-08    5.936e-05  
  3.9600e-08    5.935e-05  
  3.9700e-08    5.934e-05  
  3.9800e-08    5.933e-05  
  3.9900e-08    5.932e-05  
  4.0000e-08    5.932e-05  
y
-----------------------------------------------

          ***** job concluded
1****** HSPICE -- H-2013.03 64-BIT (Mar  7 2013) win64 ******                   
 ******  
 'inverter'

  ******  job statistics summary tnom=  25.000 temp=  25.000 *****

  ******  HSPICE Threads Information  ******

  Command Line Threads Count :     1
  Available CPU Count        :     4
  Actual Threads Count       :     1


  ******  Circuit Statistics  ******
  # nodes       =     519 # elements   =    1176
  # resistors   =     216 # capacitors =     522 # inductors   =       0
  # mutual_inds =       0 # vccs       =     144 # vcvs        =     252
  # cccs        =       0 # ccvs       =       0 # volt_srcs   =      42
  # curr_srcs   =       0 # diodes     =       0 # bjts        =       0
  # jfets       =       0 # mosfets    =       0 # U elements  =       0
  # T elements  =       0 # W elements =       0 # B elements  =       0
  # S elements  =       0 # P elements =       0 # va device   =       0
  # vector_srcs =       0 # N elements =       0


  ******  Runtime Statistics (seconds)  ******

  analysis           time    # points   tot. iter  conv.iter
  op point           0.72           1          29
  transient         18.85         401         915         227 rev=        19
  readin             0.04
  errchk             0.28
  setup              0.01
  output             0.00


           peak memory used         52.77 megabytes
           total cpu time           19.91 seconds
           total elapsed time       19.94 seconds
           job started at     21:35:22 02/26/2018
           job ended   at     21:35:42 02/26/2018


  lic: Release hspice token(s) 
 lic: total license checkout elapse time:        0.02(s)
