 ****** HSPICE -- H-2013.03 64-BIT (Mar  7 2013) win64 ******                   
  Copyright (C) 2013 Synopsys, Inc. All Rights Reserved.                        
  Unpublished-rights reserved under US copyright laws.
  This program is protected by law and is subject to the
  terms and conditions of the license agreement from Synopsys.
  Use of this program is your acceptance to be bound by the
  license agreement. HSPICE is the trademark of Synopsys, Inc.
  Input File: sramusingnti&pti.sp                                               
  Command line options: -i sramusingnti&pti.sp -o sramusingnti&pti.lis
  lic:  
  lic: FLEXlm: v10.9.8 
  lic: USER:   Dell                 HOSTNAME: DESKTOP-O3DHVG1 
  lic: HOSTID: "a0d37a293ca8 28f10e041fd4 a0d37a293ca4 a0d37a293ca5" PID:      3
 492 
  lic: Using FLEXlm license file: 
  lic: C:\synopsys\Hspice_H-2013.03\lic.dat\lic.lic 
  lic: Checkout 1 hspice 
  lic: License/Maintenance for hspice will expire on 31-dec-2019/2019.12 
  lic: NODE LOCKED license on hostid "a0d37a293ca8 28f10e041fd4 a0d37a293ca4 a0d
 37a293ca5" 
  lic:   
 Init: read install configuration file: C:\synopsys\Hspice_H-2013.03\meta.cfg
 scientific notation:
 a=10**-18  f=10**-15  p=10**-12  n=10**-9  u=10**-6
 m=10**-3   k=10**3    x=10**6    g=10**9 
1****** HSPICE -- H-2013.03 64-BIT (Mar  7 2013) win64 ******                   
 ******  
 'inverter'

  ******  circuit name directory
 circuit number to circuit name directory
   number circuitname                     definition         multiplier
        0 main circuit


 circuit parameter definitions
  parameter          =  value 

     0:temp                                                    = 2.700e+01      
     0:m_cnt                                                   = 1.000e+00      
     0:wg                                                      = 4.000e-09      
     0:cb                                                      = 4.000e-11      
     0:lg                                                      = 1.000e-08      
     0:lgef                                                    = 1.000e-07      
     0:vfn                                                     = 0.000e+00      
     0:vfp                                                     = 0.000e+00      
     0:m                                                       = 0.000e+00      
     0:n                                                       = 1.900e+01      
     0:hox                                                     = 4.000e-09      
     1:tox                                                     = 4.000e-09      
     1:csub                                                    = 4.000e-11      
     1:pitch                                                   = 2.000e-08      
     1:n1                                                      = 0.000e+00      
     1:n2                                                      = 1.000e+01      
     1:vfbp                                                    = 0.000e+00      
     1:kgate                                                   = 1.600e+01      
     1:dout                                                    = 0.000e+00      
     1:sout                                                    = 0.000e+00      
     1:tubes                                                   = 1.000e+00      
     1:lch                                                     = 1.000e-08      
     1:lgeff                                                   = 1.000e-07      
     1:lss                                                     = 3.200e-08      
     1:ldd                                                     = 3.200e-08      
     2:tox                                                     = 4.000e-09      
     2:csub                                                    = 4.000e-11      
     2:vfbn                                                    = 0.000e+00      
     2:pitch                                                   = 2.000e-08      
     2:n1                                                      = 0.000e+00      
     2:n2                                                      = 1.900e+01      
     2:kgate                                                   = 1.600e+01      
     2:dout                                                    = 0.000e+00      
     2:sout                                                    = 0.000e+00      
     2:tubes                                                   = 1.000e+00      
     2:lch                                                     = 1.000e-08      
     2:lgeff                                                   = 1.000e-07      
     2:lss                                                     = 3.200e-08      
     2:ldd                                                     = 3.200e-08      
     3:tox                                                     = 4.000e-09      
     3:csub                                                    = 4.000e-11      
     3:pitch                                                   = 2.000e-08      
     3:n1                                                      = 0.000e+00      
     3:n2                                                      = 1.400e+01      
     3:vfbp                                                    = 0.000e+00      
     3:kgate                                                   = 1.600e+01      
     3:dout                                                    = 0.000e+00      
     3:sout                                                    = 0.000e+00      
     3:tubes                                                   = 1.000e+00      
     3:lch                                                     = 1.000e-08      
     3:lgeff                                                   = 1.000e-07      
     3:lss                                                     = 3.200e-08      
     3:ldd                                                     = 3.200e-08      
     4:tox                                                     = 4.000e-09      
     4:csub                                                    = 4.000e-11      
     4:pitch                                                   = 2.000e-08      
     4:n1                                                      = 0.000e+00      
     4:n2                                                      = 1.900e+01      
     4:vfbp                                                    = 0.000e+00      
     4:kgate                                                   = 1.600e+01      
     4:dout                                                    = 0.000e+00      
     4:sout                                                    = 0.000e+00      
     4:tubes                                                   = 1.000e+00      
     4:lch                                                     = 1.000e-08      
     4:lgeff                                                   = 1.000e-07      
     4:lss                                                     = 3.200e-08      
     4:ldd                                                     = 3.200e-08      
     5:tox                                                     = 4.000e-09      
     5:csub                                                    = 4.000e-11      
     5:vfbn                                                    = 0.000e+00      
     5:pitch                                                   = 2.000e-08      
     5:n1                                                      = 0.000e+00      
     5:n2                                                      = 1.000e+01      
     5:kgate                                                   = 1.600e+01      
     5:dout                                                    = 0.000e+00      
     5:sout                                                    = 0.000e+00      
     5:tubes                                                   = 1.000e+00      
     5:lch                                                     = 1.000e-08      
     5:lgeff                                                   = 1.000e-07      
     5:lss                                                     = 3.200e-08      
     5:ldd                                                     = 3.200e-08      
     6:tox                                                     = 4.000e-09      
     6:csub                                                    = 4.000e-11      
     6:vfbn                                                    = 0.000e+00      
     6:pitch                                                   = 2.000e-08      
     6:n1                                                      = 0.000e+00      
     6:n2                                                      = 1.400e+01      
     6:kgate                                                   = 1.600e+01      
     6:dout                                                    = 0.000e+00      
     6:sout                                                    = 0.000e+00      
     6:tubes                                                   = 1.000e+00      
     6:lch                                                     = 1.000e-08      
     6:lgeff                                                   = 1.000e-07      
     6:lss                                                     = 3.200e-08      
     6:ldd                                                     = 3.200e-08      




 constants  - tnom         kt           vt           gapsi        ni
            2.9815e+02   4.1163e-21   2.5692e-02   1.1156e+00   1.2565e+16 
  **info** (sramusingnti&pti.sp:136) DC voltage reset to initial transient source value              in source        0:vrwl                new dc=  0.0000D+00

 **warning**  associated with encrypted block(s) were suppressed due to encrypted content

1****** HSPICE -- H-2013.03 64-BIT (Mar  7 2013) win64 ******                   
 ******  
 'inverter'

  ******  circuit element summary tnom=  25.000 temp=  25.000 *****


 **** independent sources

     name         node1        node2      dc volt    ac mag    ac phase    type
  vdd  vdd               0                  9.000e-01  0.000e+00  0.000e+00 dc   
  vrwl  rwl               0                  0.000e+00  0.000e+00  0.000e+00 pwl  
                time        value

                 0.000e+00    0.000e+00
                 1.250e-08    0.000e+00
                 1.260e-08    9.000e-01
                 1.500e-08    9.000e-01
                 1.510e-08    0.000e+00
                 2.250e-08    0.000e+00
                 2.260e-08    9.000e-01
                 2.500e-08    9.000e-01
                 2.510e-08    0.000e+00
                 3.250e-08    0.000e+00
                 3.260e-08    9.000e-01
                 3.500e-08    9.000e-01


  vrwlb  rwlb              0                  9.000e-01  0.000e+00  0.000e+00 pwl  
                time        value

                 0.000e+00    9.000e-01
                 1.250e-08    9.000e-01
                 1.260e-08    0.000e+00
                 1.500e-08    0.000e+00
                 1.510e-08    9.000e-01
                 2.250e-08    9.000e-01
                 2.260e-08    0.000e+00
                 2.500e-08    0.000e+00
                 2.510e-08    9.000e-01
                 3.250e-08    9.000e-01
                 3.260e-08    0.000e+00
                 3.500e-08    0.000e+00


  vwbl  wbl               0                  0.000e+00  0.000e+00  0.000e+00 pwl  
                time        value

                 0.000e+00    0.000e+00
                 5.000e-09    0.000e+00
                 5.100e-09    4.500e-01
                 1.000e-08    4.500e-01
                 1.010e-08    0.000e+00
                 1.500e-08    0.000e+00
                 1.510e-08    9.000e-01
                 2.000e-08    9.000e-01
                 2.010e-08    0.000e+00
                 3.000e-08    0.000e+00
                 4.000e-08    0.000e+00


  vwwl  wwl               0                  0.000e+00  0.000e+00  0.000e+00 pwl  
                time        value

                 0.000e+00    0.000e+00
                 7.500e-09    0.000e+00
                 7.600e-09    9.000e-01
                 1.000e-08    9.000e-01
                 1.010e-08    0.000e+00
                 1.750e-08    0.000e+00
                 1.760e-08    9.000e-01
                 2.000e-08    9.000e-01
                 2.010e-08    0.000e+00
                 2.750e-08    0.000e+00
                 2.760e-08    9.000e-01
                 3.000e-08    9.000e-01
                 3.010e-08    0.000e+00
                 4.000e-08    0.000e+00


  vwwlb  wwlb              0                  9.000e-01  0.000e+00  0.000e+00 pwl  
                time        value

                 0.000e+00    9.000e-01
                 7.500e-09    9.000e-01
                 7.600e-09    0.000e+00
                 1.000e-08    0.000e+00
                 1.010e-08    9.000e-01
                 1.750e-08    9.000e-01
                 1.760e-08    0.000e+00
                 2.000e-08    0.000e+00
                 2.010e-08    9.000e-01
                 2.750e-08    9.000e-01
                 2.760e-08    0.000e+00
                 3.000e-08    0.000e+00
                 3.010e-08    9.000e-01
                 4.000e-08    9.000e-01




 **** subcircuit calls
    name        subcircuit         external nodes


         0:xcnt1    pcnfet          0:vdd         0:q           0:n1      
                               0:n1      


         0:xcnt2    ncnfet          0:n1          0:q           0:0       
                               0:0       


         0:xcnt3    pcnfet          0:qb          0:0           0:n1      
                               0:n1      


         0:xcnt4    pcnfet          0:vdd         0:q           0:n2      
                               0:n2      


         0:xcnt5    ncnfet          0:n2          0:q           0:0       
                               0:0       


         0:xcnt6    ncnfet          0:qb          0:vdd         0:n2      
                               0:n2      


         0:xcnt7    pcnfet          0:vdd         0:qb          0:n3      
                               0:n3      


         0:xcnt8    ncnfet          0:n3          0:qb          0:0       
                               0:0       


         0:xcnt9    pcnfet          0:q           0:0           0:n3      
                               0:n3      


         0:xcnt10   pcnfet          0:vdd         0:qb          0:n4      
                               0:n4      


         0:xcnt11   ncnfet          0:n4          0:qb          0:0       
                               0:0       


         0:xcnt12   ncnfet          0:q           0:vdd         0:n4      
                               0:n4      


         0:xcnt222  pcnfet          0:q           0:wwlb        0:wbl     
                               0:wbl     


         0:xcnt111  ncnfet          0:wbl         0:wwl         0:q       
                               0:q       


         0:xcnt13   pcnfet          0:vdd         0:qb          0:n5      
                               0:n5      


         0:xcnt14   ncnfet          0:n5          0:qb          0:0       
                               0:0       


         0:xcnt15   pcnfet          0:rbl         0:rwlb        0:n5      
                               0:n5      


         0:xcnt16   ncnfet          0:n5          0:rwl         0:rbl     
                               0:rbl     


  
1****** HSPICE -- H-2013.03 64-BIT (Mar  7 2013) win64 ******                   
 ******  
 'inverter'

  ******  element node table
                                                                                      
 0                vdd              vrwl             vrwlb            vwbl             
                  vwwl             vwwlb                                              
 rwl              vrwl                                                                
 rwlb             vrwlb                                                               
 vdd              vdd                                                                 
 wbl              vwbl                                                                
 wwl              vwwl                                                                
 wwlb             vwwlb                                                               
  **warning** PIVOT option setting is simplified, pivot = 13 is obsolete,
              automatically switch to pivot = 1.
 *****************************************************************
 ******  option summary
 ******
 runlvl  = 3         bypass  = 2         
  Opening plot unit= 79
 file=sramusingnti&pti.pa0

1****** HSPICE -- H-2013.03 64-BIT (Mar  7 2013) win64 ******                   
 ******  
 'inverter'

  ******  operating point information tnom=  25.000 temp=  25.000 *****
 ***** operating point status is voltage   simulation time is   0.000e+00
     node    =voltage       node    =voltage       node    =voltage

 + 0:n1      = 2.512e-01  0:n2      = 7.885e-01  0:n3      = 2.384e-01
 + 0:n4      = 7.823e-01  0:n5      = 7.627e-01  0:q       = 4.532e-01
 + 0:qb      = 4.540e-01  0:rbl     = 1.821e-03  0:rwl     = 0.000e+00
 + 0:rwlb    = 9.000e-01  0:vdd     = 9.000e-01  0:wbl     = 0.000e+00
 + 0:wwl     = 0.000e+00  0:wwlb    = 9.000e-01

 ******  
 'inverter'

  ******  transient analysis tnom=  25.000 temp=  25.000 *****
x

        time    voltage      voltage      voltage    
                     q           qb           rbl    
  0.0000e+00    4.532e-01    4.540e-01    1.821e-03  
  1.0000e-10    4.532e-01    4.540e-01    1.821e-03  
  2.0000e-10    4.532e-01    4.540e-01    1.821e-03  
  3.0000e-10    4.532e-01    4.540e-01    1.821e-03  
  4.0000e-10    4.532e-01    4.540e-01    1.821e-03  
  5.0000e-10    4.532e-01    4.540e-01    1.821e-03  
  6.0000e-10    4.532e-01    4.540e-01    1.821e-03  
  7.0000e-10    4.532e-01    4.540e-01    1.821e-03  
  8.0000e-10    4.532e-01    4.540e-01    1.821e-03  
  9.0000e-10    4.532e-01    4.540e-01    1.821e-03  
  1.0000e-09    4.532e-01    4.540e-01    1.821e-03  
  1.1000e-09    4.532e-01    4.540e-01    1.821e-03  
  1.2000e-09    4.532e-01    4.540e-01    1.821e-03  
  1.3000e-09    4.532e-01    4.540e-01    1.821e-03  
  1.4000e-09    4.532e-01    4.540e-01    1.821e-03  
  1.5000e-09    4.532e-01    4.540e-01    1.821e-03  
  1.6000e-09    4.532e-01    4.540e-01    1.821e-03  
  1.7000e-09    4.532e-01    4.540e-01    1.821e-03  
  1.8000e-09    4.532e-01    4.540e-01    1.821e-03  
  1.9000e-09    4.532e-01    4.540e-01    1.821e-03  
  2.0000e-09    4.532e-01    4.540e-01    1.821e-03  
  2.1000e-09    4.532e-01    4.540e-01    1.821e-03  
  2.2000e-09    4.532e-01    4.540e-01    1.821e-03  
  2.3000e-09    4.532e-01    4.540e-01    1.821e-03  
  2.4000e-09    4.532e-01    4.540e-01    1.821e-03  
  2.5000e-09    4.532e-01    4.540e-01    1.821e-03  
  2.6000e-09    4.532e-01    4.540e-01    1.821e-03  
  2.7000e-09    4.532e-01    4.540e-01    1.820e-03  
  2.8000e-09    4.532e-01    4.540e-01    1.820e-03  
  2.9000e-09    4.532e-01    4.540e-01    1.820e-03  
  3.0000e-09    4.532e-01    4.540e-01    1.820e-03  
  3.1000e-09    4.532e-01    4.540e-01    1.820e-03  
  3.2000e-09    4.532e-01    4.540e-01    1.820e-03  
  3.3000e-09    4.532e-01    4.540e-01    1.820e-03  
  3.4000e-09    4.532e-01    4.540e-01    1.820e-03  
  3.5000e-09    4.532e-01    4.540e-01    1.820e-03  
  3.6000e-09    4.532e-01    4.540e-01    1.820e-03  
  3.7000e-09    4.532e-01    4.540e-01    1.820e-03  
  3.8000e-09    4.532e-01    4.540e-01    1.820e-03  
  3.9000e-09    4.532e-01    4.540e-01    1.820e-03  
  4.0000e-09    4.532e-01    4.540e-01    1.820e-03  
  4.1000e-09    4.532e-01    4.540e-01    1.820e-03  
  4.2000e-09    4.532e-01    4.540e-01    1.820e-03  
  4.3000e-09    4.532e-01    4.540e-01    1.820e-03  
  4.4000e-09    4.532e-01    4.540e-01    1.820e-03  
  4.5000e-09    4.532e-01    4.540e-01    1.820e-03  
  4.6000e-09    4.532e-01    4.540e-01    1.820e-03  
  4.7000e-09    4.532e-01    4.540e-01    1.820e-03  
  4.8000e-09    4.532e-01    4.540e-01    1.820e-03  
  4.9000e-09    4.532e-01    4.540e-01    1.820e-03  
  5.0000e-09    4.532e-01    4.540e-01    1.820e-03  
  5.1000e-09    4.881e-01    4.552e-01    1.818e-03  
  5.2000e-09    4.634e-01    4.518e-01    1.529e-03  
  5.3000e-09    4.579e-01    4.512e-01    1.851e-03  
  5.4000e-09    4.569e-01    4.514e-01    2.296e-03  
  5.5000e-09    4.566e-01    4.516e-01    2.726e-03  
  5.6000e-09    4.564e-01    4.517e-01    3.094e-03  
  5.7000e-09    4.562e-01    4.519e-01    3.452e-03  
  5.8000e-09    4.560e-01    4.520e-01    3.770e-03  
  5.9000e-09    4.559e-01    4.521e-01    4.037e-03  
  6.0000e-09    4.558e-01    4.522e-01    4.303e-03  
  6.1000e-09    4.556e-01    4.523e-01    4.570e-03  
  6.2000e-09    4.555e-01    4.524e-01    4.836e-03  
  6.3000e-09    4.554e-01    4.525e-01    5.102e-03  
  6.4000e-09    4.553e-01    4.525e-01    5.297e-03  
  6.5000e-09    4.552e-01    4.526e-01    5.459e-03  
  6.6000e-09    4.551e-01    4.527e-01    5.621e-03  
  6.7000e-09    4.550e-01    4.527e-01    5.782e-03  
  6.8000e-09    4.549e-01    4.528e-01    5.944e-03  
  6.9000e-09    4.548e-01    4.528e-01    6.105e-03  
  7.0000e-09    4.547e-01    4.529e-01    6.267e-03  
  7.1000e-09    4.547e-01    4.530e-01    6.429e-03  
  7.2000e-09    4.546e-01    4.530e-01    6.563e-03  
  7.3000e-09    4.545e-01    4.531e-01    6.663e-03  
  7.4000e-09    4.545e-01    4.531e-01    6.764e-03  
  7.5000e-09    4.544e-01    4.531e-01    6.865e-03  
  7.6000e-09    4.832e-01    4.539e-01    6.898e-03  
  7.7000e-09    4.551e-01    4.511e-01    6.793e-03  
  7.8000e-09    4.531e-01    4.514e-01    7.205e-03  
  7.9000e-09    4.529e-01    4.519e-01    7.563e-03  
  8.0000e-09    4.527e-01    4.522e-01    7.853e-03  
  8.1000e-09    4.525e-01    4.525e-01    8.056e-03  
  8.2000e-09    4.523e-01    4.528e-01    8.259e-03  
  8.3000e-09    4.522e-01    4.530e-01    8.378e-03  
  8.4000e-09    4.521e-01    4.532e-01    8.427e-03  
  8.5000e-09    4.520e-01    4.534e-01    8.475e-03  
  8.6000e-09    4.519e-01    4.535e-01    8.523e-03  
  8.7000e-09    4.518e-01    4.537e-01    8.572e-03  
  8.8000e-09    4.517e-01    4.539e-01    8.577e-03  
  8.9000e-09    4.516e-01    4.540e-01    8.483e-03  
  9.0000e-09    4.516e-01    4.541e-01    8.390e-03  
  9.1000e-09    4.516e-01    4.542e-01    8.296e-03  
  9.2000e-09    4.515e-01    4.542e-01    8.202e-03  
  9.3000e-09    4.515e-01    4.543e-01    8.109e-03  
  9.4000e-09    4.514e-01    4.544e-01    8.015e-03  
  9.5000e-09    4.514e-01    4.545e-01    7.922e-03  
  9.6000e-09    4.514e-01    4.546e-01    7.828e-03  
  9.7000e-09    4.514e-01    4.547e-01    7.658e-03  
  9.8000e-09    4.513e-01    4.547e-01    7.487e-03  
  9.9000e-09    4.513e-01    4.548e-01    7.317e-03  
  1.0000e-08    4.513e-01    4.548e-01    7.146e-03  
  1.0100e-08    3.838e-01    4.537e-01    7.041e-03  
  1.0200e-08    4.334e-01    4.618e-01    7.411e-03  
  1.0300e-08    4.442e-01    4.645e-01    6.285e-03  
  1.0400e-08    4.460e-01    4.642e-01    4.572e-03  
  1.0500e-08    4.467e-01    4.635e-01    2.924e-03  
  1.0600e-08    4.471e-01    4.627e-01    1.353e-03  
  1.0700e-08    4.474e-01    4.622e-01    2.048e-05  
  1.0800e-08    4.478e-01    4.616e-01   -1.312e-03  
  1.0900e-08    4.481e-01    4.611e-01   -2.561e-03  
  1.1000e-08    4.483e-01    4.607e-01   -3.514e-03  
  1.1100e-08    4.486e-01    4.603e-01   -4.468e-03  
  1.1200e-08    4.488e-01    4.600e-01   -5.421e-03  
  1.1300e-08    4.491e-01    4.596e-01   -6.374e-03  
  1.1400e-08    4.493e-01    4.592e-01   -7.327e-03  
  1.1500e-08    4.495e-01    4.590e-01   -8.025e-03  
  1.1600e-08    4.497e-01    4.587e-01   -8.580e-03  
  1.1700e-08    4.499e-01    4.585e-01   -9.135e-03  
  1.1800e-08    4.501e-01    4.583e-01   -9.690e-03  
  1.1900e-08    4.502e-01    4.581e-01   -1.024e-02  
  1.2000e-08    4.504e-01    4.578e-01   -1.080e-02  
  1.2100e-08    4.506e-01    4.576e-01   -1.135e-02  
  1.2200e-08    4.508e-01    4.574e-01   -1.191e-02  
  1.2300e-08    4.509e-01    4.572e-01   -1.246e-02  
  1.2400e-08    4.511e-01    4.570e-01   -1.287e-02  
  1.2500e-08    4.512e-01    4.568e-01   -1.320e-02  
  1.2600e-08    4.509e-01    4.491e-01    4.809e-01  
  1.2700e-08    4.518e-01    4.540e-01    5.661e-01  
  1.2800e-08    4.521e-01    4.555e-01    5.676e-01  
  1.2900e-08    4.521e-01    4.556e-01    5.688e-01  
  1.3000e-08    4.522e-01    4.555e-01    5.700e-01  
  1.3100e-08    4.522e-01    4.554e-01    5.711e-01  
  1.3200e-08    4.523e-01    4.553e-01    5.723e-01  
  1.3300e-08    4.523e-01    4.553e-01    5.734e-01  
  1.3400e-08    4.523e-01    4.552e-01    5.746e-01  
  1.3500e-08    4.524e-01    4.551e-01    5.758e-01  
  1.3600e-08    4.524e-01    4.551e-01    5.769e-01  
  1.3700e-08    4.525e-01    4.550e-01    5.781e-01  
  1.3800e-08    4.525e-01    4.550e-01    5.793e-01  
  1.3900e-08    4.525e-01    4.549e-01    5.805e-01  
  1.4000e-08    4.526e-01    4.549e-01    5.816e-01  
  1.4100e-08    4.526e-01    4.549e-01    5.828e-01  
  1.4200e-08    4.526e-01    4.548e-01    5.839e-01  
  1.4300e-08    4.526e-01    4.548e-01    5.851e-01  
  1.4400e-08    4.527e-01    4.547e-01    5.863e-01  
  1.4500e-08    4.527e-01    4.547e-01    5.874e-01  
  1.4600e-08    4.527e-01    4.547e-01    5.886e-01  
  1.4700e-08    4.528e-01    4.546e-01    5.898e-01  
  1.4800e-08    4.528e-01    4.546e-01    5.909e-01  
  1.4900e-08    4.528e-01    4.545e-01    5.921e-01  
  1.5000e-08    4.528e-01    4.545e-01    5.932e-01  
  1.5100e-08    5.213e-01    4.590e-01    3.542e-01  
  1.5200e-08    4.735e-01    4.513e-01    3.538e-01  
  1.5300e-08    4.639e-01    4.497e-01    3.549e-01  
  1.5400e-08    4.615e-01    4.494e-01    3.564e-01  
  1.5500e-08    4.605e-01    4.496e-01    3.578e-01  
  1.5600e-08    4.598e-01    4.498e-01    3.593e-01  
  1.5700e-08    4.594e-01    4.500e-01    3.606e-01  
  1.5800e-08    4.590e-01    4.502e-01    3.620e-01  
  1.5900e-08    4.586e-01    4.504e-01    3.633e-01  
  1.6000e-08    4.583e-01    4.506e-01    3.644e-01  
  1.6100e-08    4.580e-01    4.508e-01    3.655e-01  
  1.6200e-08    4.578e-01    4.510e-01    3.666e-01  
  1.6300e-08    4.575e-01    4.511e-01    3.677e-01  
  1.6400e-08    4.572e-01    4.513e-01    3.688e-01  
  1.6500e-08    4.570e-01    4.514e-01    3.697e-01  
  1.6600e-08    4.569e-01    4.515e-01    3.705e-01  
  1.6700e-08    4.567e-01    4.516e-01    3.713e-01  
  1.6800e-08    4.565e-01    4.518e-01    3.722e-01  
  1.6900e-08    4.563e-01    4.519e-01    3.730e-01  
  1.7000e-08    4.562e-01    4.520e-01    3.738e-01  
  1.7100e-08    4.560e-01    4.521e-01    3.746e-01  
  1.7200e-08    4.558e-01    4.522e-01    3.754e-01  
  1.7300e-08    4.557e-01    4.523e-01    3.763e-01  
  1.7400e-08    4.555e-01    4.524e-01    3.770e-01  
  1.7500e-08    4.554e-01    4.525e-01    3.776e-01  
  1.7600e-08    8.761e-01    4.688e-01    3.792e-01  
  1.7700e-08    9.001e-01    5.605e-02    5.112e-01  
  1.7800e-08    9.001e-01    5.611e-02    5.112e-01  
  1.7900e-08    8.999e-01    5.618e-02    5.111e-01  
  1.8000e-08    9.000e-01    5.618e-02    5.110e-01  
  1.8100e-08    9.001e-01    5.613e-02    5.108e-01  
  1.8200e-08    9.001e-01    5.612e-02    5.107e-01  
  1.8300e-08    9.000e-01    5.614e-02    5.106e-01  
  1.8400e-08    9.000e-01    5.617e-02    5.105e-01  
  1.8500e-08    8.999e-01    5.619e-02    5.104e-01  
  1.8600e-08    8.999e-01    5.620e-02    5.103e-01  
  1.8700e-08    8.999e-01    5.619e-02    5.101e-01  
  1.8800e-08    9.000e-01    5.617e-02    5.100e-01  
  1.8900e-08    9.000e-01    5.616e-02    5.099e-01  
  1.9000e-08    9.000e-01    5.615e-02    5.097e-01  
  1.9100e-08    9.000e-01    5.613e-02    5.096e-01  
  1.9200e-08    9.001e-01    5.612e-02    5.094e-01  
  1.9300e-08    9.001e-01    5.611e-02    5.093e-01  
  1.9400e-08    9.001e-01    5.612e-02    5.092e-01  
  1.9500e-08    9.000e-01    5.614e-02    5.091e-01  
  1.9600e-08    9.000e-01    5.615e-02    5.090e-01  
  1.9700e-08    9.000e-01    5.617e-02    5.089e-01  
  1.9800e-08    9.000e-01    5.618e-02    5.088e-01  
  1.9900e-08    8.999e-01    5.620e-02    5.087e-01  
  2.0000e-08    8.999e-01    5.622e-02    5.085e-01  
  2.0100e-08    8.239e-01    5.956e-02    5.082e-01  
  2.0200e-08    8.090e-01    6.642e-02    5.082e-01  
  2.0300e-08    8.090e-01    6.643e-02    5.081e-01  
  2.0400e-08    8.090e-01    6.643e-02    5.080e-01  
  2.0500e-08    8.090e-01    6.642e-02    5.079e-01  
  2.0600e-08    8.090e-01    6.642e-02    5.077e-01  
  2.0700e-08    8.090e-01    6.642e-02    5.076e-01  
  2.0800e-08    8.090e-01    6.642e-02    5.075e-01  
  2.0900e-08    8.090e-01    6.642e-02    5.074e-01  
  2.1000e-08    8.090e-01    6.642e-02    5.072e-01  
  2.1100e-08    8.090e-01    6.642e-02    5.071e-01  
  2.1200e-08    8.090e-01    6.642e-02    5.070e-01  
  2.1300e-08    8.090e-01    6.642e-02    5.069e-01  
  2.1400e-08    8.090e-01    6.642e-02    5.067e-01  
  2.1500e-08    8.090e-01    6.642e-02    5.066e-01  
  2.1600e-08    8.090e-01    6.642e-02    5.065e-01  
  2.1700e-08    8.090e-01    6.642e-02    5.064e-01  
  2.1800e-08    8.090e-01    6.642e-02    5.062e-01  
  2.1900e-08    8.090e-01    6.642e-02    5.061e-01  
  2.2000e-08    8.090e-01    6.642e-02    5.060e-01  
  2.2100e-08    8.090e-01    6.642e-02    5.059e-01  
  2.2200e-08    8.090e-01    6.642e-02    5.057e-01  
  2.2300e-08    8.090e-01    6.642e-02    5.056e-01  
  2.2400e-08    8.090e-01    6.642e-02    5.055e-01  
  2.2500e-08    8.090e-01    6.642e-02    5.054e-01  
  2.2600e-08    8.090e-01    6.642e-02    8.881e-01  
  2.2700e-08    8.090e-01    6.642e-02    9.000e-01  
  2.2800e-08    8.090e-01    6.642e-02    9.000e-01  
  2.2900e-08    8.090e-01    6.643e-02    9.000e-01  
  2.3000e-08    8.090e-01    6.643e-02    9.000e-01  
  2.3100e-08    8.090e-01    6.643e-02    9.000e-01  
  2.3200e-08    8.090e-01    6.643e-02    9.000e-01  
  2.3300e-08    8.090e-01    6.642e-02    9.000e-01  
  2.3400e-08    8.090e-01    6.642e-02    9.000e-01  
  2.3500e-08    8.090e-01    6.642e-02    9.000e-01  
  2.3600e-08    8.090e-01    6.642e-02    9.000e-01  
  2.3700e-08    8.090e-01    6.642e-02    9.000e-01  
  2.3800e-08    8.090e-01    6.642e-02    9.000e-01  
  2.3900e-08    8.090e-01    6.642e-02    9.000e-01  
  2.4000e-08    8.090e-01    6.642e-02    9.000e-01  
  2.4100e-08    8.090e-01    6.642e-02    9.000e-01  
  2.4200e-08    8.090e-01    6.642e-02    9.000e-01  
  2.4300e-08    8.090e-01    6.642e-02    9.000e-01  
  2.4400e-08    8.090e-01    6.643e-02    9.000e-01  
  2.4500e-08    8.090e-01    6.643e-02    9.000e-01  
  2.4600e-08    8.090e-01    6.643e-02    9.000e-01  
  2.4700e-08    8.090e-01    6.643e-02    9.000e-01  
  2.4800e-08    8.090e-01    6.643e-02    9.000e-01  
  2.4900e-08    8.090e-01    6.643e-02    9.000e-01  
  2.5000e-08    8.090e-01    6.643e-02    8.999e-01  
  2.5100e-08    8.090e-01    6.626e-02    8.035e-01  
  2.5200e-08    8.090e-01    6.642e-02    8.019e-01  
  2.5300e-08    8.090e-01    6.643e-02    8.017e-01  
  2.5400e-08    8.090e-01    6.643e-02    8.015e-01  
  2.5500e-08    8.090e-01    6.642e-02    8.013e-01  
  2.5600e-08    8.090e-01    6.642e-02    8.011e-01  
  2.5700e-08    8.090e-01    6.642e-02    8.010e-01  
  2.5800e-08    8.090e-01    6.642e-02    8.008e-01  
  2.5900e-08    8.090e-01    6.642e-02    8.006e-01  
  2.6000e-08    8.090e-01    6.642e-02    8.004e-01  
  2.6100e-08    8.090e-01    6.642e-02    8.002e-01  
  2.6200e-08    8.090e-01    6.642e-02    8.000e-01  
  2.6300e-08    8.090e-01    6.643e-02    7.998e-01  
  2.6400e-08    8.090e-01    6.643e-02    7.996e-01  
  2.6500e-08    8.090e-01    6.643e-02    7.994e-01  
  2.6600e-08    8.090e-01    6.643e-02    7.992e-01  
  2.6700e-08    8.090e-01    6.643e-02    7.990e-01  
  2.6800e-08    8.090e-01    6.643e-02    7.988e-01  
  2.6900e-08    8.090e-01    6.643e-02    7.986e-01  
  2.7000e-08    8.090e-01    6.642e-02    7.984e-01  
  2.7100e-08    8.090e-01    6.642e-02    7.982e-01  
  2.7200e-08    8.090e-01    6.642e-02    7.980e-01  
  2.7300e-08    8.090e-01    6.642e-02    7.978e-01  
  2.7400e-08    8.090e-01    6.642e-02    7.976e-01  
  2.7500e-08    8.090e-01    6.642e-02    7.974e-01  
  2.7600e-08    9.272e-02    2.782e-01    8.083e-01  
  2.7700e-08    1.166e-02    8.938e-01    2.288e-01  
  2.7800e-08    1.147e-02    9.000e-01    2.281e-01  
  2.7900e-08    1.148e-02    9.000e-01    2.280e-01  
  2.8000e-08    1.147e-02    9.000e-01    2.280e-01  
  2.8100e-08    1.147e-02    9.000e-01    2.279e-01  
  2.8200e-08    1.147e-02    9.000e-01    2.278e-01  
  2.8300e-08    1.148e-02    9.000e-01    2.278e-01  
  2.8400e-08    1.148e-02    9.000e-01    2.277e-01  
  2.8500e-08    1.148e-02    9.000e-01    2.276e-01  
  2.8600e-08    1.148e-02    9.000e-01    2.276e-01  
  2.8700e-08    1.148e-02    9.000e-01    2.275e-01  
  2.8800e-08    1.147e-02    9.000e-01    2.275e-01  
  2.8900e-08    1.147e-02    9.000e-01    2.274e-01  
  2.9000e-08    1.147e-02    9.000e-01    2.274e-01  
  2.9100e-08    1.147e-02    9.000e-01    2.274e-01  
  2.9200e-08    1.147e-02    9.000e-01    2.273e-01  
  2.9300e-08    1.147e-02    9.000e-01    2.273e-01  
  2.9400e-08    1.147e-02    9.000e-01    2.272e-01  
  2.9500e-08    1.147e-02    9.000e-01    2.271e-01  
  2.9600e-08    1.147e-02    9.000e-01    2.270e-01  
  2.9700e-08    1.147e-02    9.000e-01    2.270e-01  
  2.9800e-08    1.148e-02    9.000e-01    2.269e-01  
  2.9900e-08    1.148e-02    9.000e-01    2.268e-01  
  3.0000e-08    1.148e-02    9.000e-01    2.267e-01  
  3.0100e-08    4.996e-02    9.001e-01    2.267e-01  
  3.0200e-08    5.618e-02    9.000e-01    2.267e-01  
  3.0300e-08    5.616e-02    9.000e-01    2.266e-01  
  3.0400e-08    5.615e-02    9.000e-01    2.266e-01  
  3.0500e-08    5.615e-02    9.000e-01    2.265e-01  
  3.0600e-08    5.615e-02    9.000e-01    2.265e-01  
  3.0700e-08    5.615e-02    9.000e-01    2.264e-01  
  3.0800e-08    5.615e-02    9.000e-01    2.264e-01  
  3.0900e-08    5.615e-02    9.000e-01    2.263e-01  
  3.1000e-08    5.615e-02    9.000e-01    2.262e-01  
  3.1100e-08    5.615e-02    9.000e-01    2.262e-01  
  3.1200e-08    5.615e-02    9.000e-01    2.261e-01  
  3.1300e-08    5.615e-02    9.000e-01    2.261e-01  
  3.1400e-08    5.615e-02    9.000e-01    2.260e-01  
  3.1500e-08    5.615e-02    9.000e-01    2.260e-01  
  3.1600e-08    5.615e-02    9.000e-01    2.259e-01  
  3.1700e-08    5.615e-02    9.000e-01    2.258e-01  
  3.1800e-08    5.615e-02    9.000e-01    2.258e-01  
  3.1900e-08    5.615e-02    9.000e-01    2.257e-01  
  3.2000e-08    5.615e-02    9.000e-01    2.257e-01  
  3.2100e-08    5.616e-02    9.000e-01    2.256e-01  
  3.2200e-08    5.616e-02    9.000e-01    2.256e-01  
  3.2300e-08    5.616e-02    9.000e-01    2.255e-01  
  3.2400e-08    5.616e-02    9.000e-01    2.255e-01  
  3.2500e-08    5.616e-02    9.000e-01    2.254e-01  
  3.2600e-08    5.613e-02    8.997e-01    6.645e-02  
  3.2700e-08    5.615e-02    9.000e-01    5.421e-02  
  3.2800e-08    5.616e-02    9.000e-01    5.426e-02  
  3.2900e-08    5.616e-02    9.000e-01    5.424e-02  
  3.3000e-08    5.615e-02    9.000e-01    5.421e-02  
  3.3100e-08    5.616e-02    9.000e-01    5.422e-02  
  3.3200e-08    5.616e-02    9.000e-01    5.423e-02  
  3.3300e-08    5.616e-02    9.000e-01    5.424e-02  
  3.3400e-08    5.616e-02    9.000e-01    5.426e-02  
  3.3500e-08    5.616e-02    9.000e-01    5.427e-02  
  3.3600e-08    5.616e-02    9.000e-01    5.428e-02  
  3.3700e-08    5.616e-02    9.000e-01    5.427e-02  
  3.3800e-08    5.616e-02    9.000e-01    5.427e-02  
  3.3900e-08    5.616e-02    9.000e-01    5.426e-02  
  3.4000e-08    5.616e-02    9.000e-01    5.426e-02  
  3.4100e-08    5.616e-02    9.000e-01    5.425e-02  
  3.4200e-08    5.616e-02    9.000e-01    5.425e-02  
  3.4300e-08    5.616e-02    9.000e-01    5.424e-02  
  3.4400e-08    5.616e-02    9.000e-01    5.424e-02  
  3.4500e-08    5.616e-02    9.000e-01    5.423e-02  
  3.4600e-08    5.616e-02    9.000e-01    5.423e-02  
  3.4700e-08    5.616e-02    9.000e-01    5.422e-02  
  3.4800e-08    5.616e-02    9.000e-01    5.422e-02  
  3.4900e-08    5.616e-02    9.000e-01    5.421e-02  
  3.5000e-08    5.615e-02    9.000e-01    5.421e-02  
  3.5100e-08    5.616e-02    9.000e-01    5.421e-02  
  3.5200e-08    5.616e-02    9.000e-01    5.421e-02  
  3.5300e-08    5.616e-02    9.000e-01    5.421e-02  
  3.5400e-08    5.616e-02    9.000e-01    5.421e-02  
  3.5500e-08    5.616e-02    9.000e-01    5.421e-02  
  3.5600e-08    5.616e-02    9.000e-01    5.422e-02  
  3.5700e-08    5.616e-02    9.000e-01    5.422e-02  
  3.5800e-08    5.616e-02    9.000e-01    5.422e-02  
  3.5900e-08    5.616e-02    9.000e-01    5.422e-02  
  3.6000e-08    5.616e-02    9.000e-01    5.422e-02  
  3.6100e-08    5.616e-02    9.000e-01    5.422e-02  
  3.6200e-08    5.616e-02    9.000e-01    5.422e-02  
  3.6300e-08    5.616e-02    9.000e-01    5.422e-02  
  3.6400e-08    5.616e-02    9.000e-01    5.423e-02  
  3.6500e-08    5.616e-02    9.000e-01    5.423e-02  
  3.6600e-08    5.616e-02    9.000e-01    5.423e-02  
  3.6700e-08    5.616e-02    9.000e-01    5.423e-02  
  3.6800e-08    5.616e-02    9.000e-01    5.423e-02  
  3.6900e-08    5.616e-02    9.000e-01    5.423e-02  
  3.7000e-08    5.616e-02    9.000e-01    5.423e-02  
  3.7100e-08    5.616e-02    9.000e-01    5.423e-02  
  3.7200e-08    5.616e-02    9.000e-01    5.423e-02  
  3.7300e-08    5.616e-02    9.000e-01    5.423e-02  
  3.7400e-08    5.616e-02    9.000e-01    5.423e-02  
  3.7500e-08    5.616e-02    9.000e-01    5.424e-02  
  3.7600e-08    5.616e-02    9.000e-01    5.424e-02  
  3.7700e-08    5.616e-02    9.000e-01    5.424e-02  
  3.7800e-08    5.616e-02    9.000e-01    5.424e-02  
  3.7900e-08    5.616e-02    9.000e-01    5.424e-02  
  3.8000e-08    5.616e-02    9.000e-01    5.424e-02  
  3.8100e-08    5.616e-02    9.000e-01    5.424e-02  
  3.8200e-08    5.616e-02    9.000e-01    5.424e-02  
  3.8300e-08    5.616e-02    9.000e-01    5.424e-02  
  3.8400e-08    5.616e-02    9.000e-01    5.424e-02  
  3.8500e-08    5.616e-02    9.000e-01    5.424e-02  
  3.8600e-08    5.616e-02    9.000e-01    5.424e-02  
  3.8700e-08    5.616e-02    9.000e-01    5.424e-02  
  3.8800e-08    5.616e-02    9.000e-01    5.424e-02  
  3.8900e-08    5.616e-02    9.000e-01    5.424e-02  
  3.9000e-08    5.616e-02    9.000e-01    5.424e-02  
  3.9100e-08    5.616e-02    9.000e-01    5.424e-02  
  3.9200e-08    5.616e-02    9.000e-01    5.424e-02  
  3.9300e-08    5.616e-02    9.000e-01    5.424e-02  
  3.9400e-08    5.616e-02    9.000e-01    5.424e-02  
  3.9500e-08    5.616e-02    9.000e-01    5.424e-02  
  3.9600e-08    5.616e-02    9.000e-01    5.424e-02  
  3.9700e-08    5.616e-02    9.000e-01    5.424e-02  
  3.9800e-08    5.616e-02    9.000e-01    5.425e-02  
  3.9900e-08    5.616e-02    9.000e-01    5.425e-02  
  4.0000e-08    5.616e-02    9.000e-01    5.425e-02  
y
-----------------------------------------------

          ***** job concluded
1****** HSPICE -- H-2013.03 64-BIT (Mar  7 2013) win64 ******                   
 ******  
 'inverter'

  ******  job statistics summary tnom=  25.000 temp=  25.000 *****

  ******  HSPICE Threads Information  ******

  Command Line Threads Count :     1
  Available CPU Count        :     4
  Actual Threads Count       :     1


  ******  Circuit Statistics  ******
  # nodes       =     519 # elements   =    1176
  # resistors   =     216 # capacitors =     522 # inductors   =       0
  # mutual_inds =       0 # vccs       =     144 # vcvs        =     252
  # cccs        =       0 # ccvs       =       0 # volt_srcs   =      42
  # curr_srcs   =       0 # diodes     =       0 # bjts        =       0
  # jfets       =       0 # mosfets    =       0 # U elements  =       0
  # T elements  =       0 # W elements =       0 # B elements  =       0
  # S elements  =       0 # P elements =       0 # va device   =       0
  # vector_srcs =       0 # N elements =       0


  ******  Runtime Statistics (seconds)  ******

  analysis           time    # points   tot. iter  conv.iter
  op point           2.52           1          83
  transient         31.82         401        1207         256 rev=        24
  readin             0.05
  errchk             0.34
  setup              0.01
  output             0.00


           peak memory used         52.76 megabytes
           total cpu time           34.75 seconds
           total elapsed time       34.78 seconds
           job started at     00:50:04 01/30/2018
           job ended   at     00:50:39 01/30/2018


  lic: Release hspice token(s) 
 lic: total license checkout elapse time:        0.03(s)
