 ****** HSPICE -- H-2013.03 64-BIT (Mar  7 2013) win64 ******                   
  Copyright (C) 2013 Synopsys, Inc. All Rights Reserved.                        
  Unpublished-rights reserved under US copyright laws.
  This program is protected by law and is subject to the
  terms and conditions of the license agreement from Synopsys.
  Use of this program is your acceptance to be bound by the
  license agreement. HSPICE is the trademark of Synopsys, Inc.
  Input File: sram2.sp                                                          
  Command line options: -i sram2.sp -o sram2.lis
  lic:  
  lic: FLEXlm: v10.9.8 
  lic: USER:   Dell                 HOSTNAME: DESKTOP-O3DHVG1 
  lic: HOSTID: "28f10e041fd4 a0d37a293ca4 a0d37a293ca5" PID:      13280 
  lic: Using FLEXlm license file: 
  lic: C:\synopsys\Hspice_H-2013.03\lic.dat\lic.lic 
  lic: Checkout 1 hspice 
  lic: License/Maintenance for hspice will expire on 31-dec-2019/2019.12 
  lic: NODE LOCKED license on hostid "28f10e041fd4 a0d37a293ca4 a0d37a293ca5" 
  lic:   
 Init: read install configuration file: C:\synopsys\Hspice_H-2013.03\meta.cfg
 scientific notation:
 a=10**-18  f=10**-15  p=10**-12  n=10**-9  u=10**-6
 m=10**-3   k=10**3    x=10**6    g=10**9 
1****** HSPICE -- H-2013.03 64-BIT (Mar  7 2013) win64 ******                   
 ******  
 'inverter'

  ******  circuit name directory
 circuit number to circuit name directory
   number circuitname                     definition         multiplier
        0 main circuit


 circuit parameter definitions
  parameter          =  value 

     0:temp                                                    = 2.700e+01      
     0:m_cnt                                                   = 1.000e+00      
     0:wg                                                      = 4.000e-09      
     0:cb                                                      = 4.000e-11      
     0:lg                                                      = 1.000e-08      
     0:lgef                                                    = 1.000e-07      
     0:vfn                                                     = 0.000e+00      
     0:vfp                                                     = 0.000e+00      
     0:m                                                       = 0.000e+00      
     0:n                                                       = 1.900e+01      
     0:hox                                                     = 4.000e-09      
     1:tox                                                     = 4.000e-09      
     1:csub                                                    = 4.000e-11      
     1:pitch                                                   = 2.000e-08      
     1:n1                                                      = 0.000e+00      
     1:n2                                                      = 1.900e+01      
     1:vfbp                                                    = 0.000e+00      
     1:kgate                                                   = 1.600e+01      
     1:dout                                                    = 0.000e+00      
     1:sout                                                    = 0.000e+00      
     1:tubes                                                   = 1.000e+00      
     1:lch                                                     = 1.000e-08      
     1:lgeff                                                   = 1.000e-07      
     1:lss                                                     = 3.200e-08      
     1:ldd                                                     = 3.200e-08      
     2:tox                                                     = 4.000e-09      
     2:csub                                                    = 4.000e-11      
     2:pitch                                                   = 2.000e-08      
     2:n1                                                      = 0.000e+00      
     2:n2                                                      = 1.000e+01      
     2:vfbp                                                    = 0.000e+00      
     2:kgate                                                   = 1.600e+01      
     2:dout                                                    = 0.000e+00      
     2:sout                                                    = 0.000e+00      
     2:tubes                                                   = 1.000e+00      
     2:lch                                                     = 1.000e-08      
     2:lgeff                                                   = 1.000e-07      
     2:lss                                                     = 3.200e-08      
     2:ldd                                                     = 3.200e-08      
     3:tox                                                     = 4.000e-09      
     3:csub                                                    = 4.000e-11      
     3:pitch                                                   = 2.000e-08      
     3:n1                                                      = 0.000e+00      
     3:n2                                                      = 1.300e+01      
     3:vfbp                                                    = 0.000e+00      
     3:kgate                                                   = 1.600e+01      
     3:dout                                                    = 0.000e+00      
     3:sout                                                    = 0.000e+00      
     3:tubes                                                   = 1.000e+00      
     3:lch                                                     = 1.000e-08      
     3:lgeff                                                   = 1.000e-07      
     3:lss                                                     = 3.200e-08      
     3:ldd                                                     = 3.200e-08      
     4:tox                                                     = 4.000e-09      
     4:csub                                                    = 4.000e-11      
     4:vfbn                                                    = 0.000e+00      
     4:pitch                                                   = 2.000e-08      
     4:n1                                                      = 0.000e+00      
     4:n2                                                      = 1.300e+01      
     4:kgate                                                   = 1.600e+01      
     4:dout                                                    = 0.000e+00      
     4:sout                                                    = 0.000e+00      
     4:tubes                                                   = 1.000e+00      
     4:lch                                                     = 1.000e-08      
     4:lgeff                                                   = 1.000e-07      
     4:lss                                                     = 3.200e-08      
     4:ldd                                                     = 3.200e-08      
     5:tox                                                     = 4.000e-09      
     5:csub                                                    = 4.000e-11      
     5:vfbn                                                    = 0.000e+00      
     5:pitch                                                   = 2.000e-08      
     5:n1                                                      = 0.000e+00      
     5:n2                                                      = 1.900e+01      
     5:kgate                                                   = 1.600e+01      
     5:dout                                                    = 0.000e+00      
     5:sout                                                    = 0.000e+00      
     5:tubes                                                   = 1.000e+00      
     5:lch                                                     = 1.000e-08      
     5:lgeff                                                   = 1.000e-07      
     5:lss                                                     = 3.200e-08      
     5:ldd                                                     = 3.200e-08      
     6:tox                                                     = 4.000e-09      
     6:csub                                                    = 4.000e-11      
     6:vfbn                                                    = 0.000e+00      
     6:pitch                                                   = 2.000e-08      
     6:n1                                                      = 0.000e+00      
     6:n2                                                      = 1.000e+01      
     6:kgate                                                   = 1.600e+01      
     6:dout                                                    = 0.000e+00      
     6:sout                                                    = 0.000e+00      
     6:tubes                                                   = 1.000e+00      
     6:lch                                                     = 1.000e-08      
     6:lgeff                                                   = 1.000e-07      
     6:lss                                                     = 3.200e-08      
     6:ldd                                                     = 3.200e-08      




 constants  - tnom         kt           vt           gapsi        ni
            2.9815e+02   4.1163e-21   2.5692e-02   1.1156e+00   1.2565e+16 
  **info** (sram2.sp:130) DC voltage reset to initial transient source value              in source        0:vrwl                new dc=  0.0000D+00

 **warning**  associated with encrypted block(s) were suppressed due to encrypted content

1****** HSPICE -- H-2013.03 64-BIT (Mar  7 2013) win64 ******                   
 ******  
 'inverter'

  ******  circuit element summary tnom=  25.000 temp=  25.000 *****


 **** independent sources

     name         node1        node2      dc volt    ac mag    ac phase    type
  vdd  vdd               0                  9.000e-01  0.000e+00  0.000e+00 dc   
  vrwl  rwl               0                  0.000e+00  0.000e+00  0.000e+00 pwl  
                time        value

                 0.000e+00    0.000e+00
                 1.250e-08    0.000e+00
                 1.260e-08    9.000e-01
                 1.500e-08    9.000e-01
                 1.510e-08    0.000e+00
                 2.250e-08    0.000e+00
                 2.260e-08    9.000e-01
                 2.500e-08    9.000e-01
                 2.510e-08    0.000e+00
                 3.250e-08    0.000e+00
                 3.260e-08    9.000e-01
                 3.500e-08    9.000e-01


  vrwlb  rwlb              0                  9.000e-01  0.000e+00  0.000e+00 pwl  
                time        value

                 0.000e+00    9.000e-01
                 1.250e-08    9.000e-01
                 1.260e-08    0.000e+00
                 1.500e-08    0.000e+00
                 1.510e-08    9.000e-01
                 2.250e-08    9.000e-01
                 2.260e-08    0.000e+00
                 2.500e-08    0.000e+00
                 2.510e-08    9.000e-01
                 3.250e-08    9.000e-01
                 3.260e-08    0.000e+00
                 3.500e-08    0.000e+00


  vwbl  wbl               0                  0.000e+00  0.000e+00  0.000e+00 pwl  
                time        value

                 0.000e+00    0.000e+00
                 5.000e-09    0.000e+00
                 5.100e-09    4.500e-01
                 1.000e-08    4.500e-01
                 1.010e-08    0.000e+00
                 1.500e-08    0.000e+00
                 1.510e-08    9.000e-01
                 2.000e-08    9.000e-01
                 2.010e-08    0.000e+00
                 3.000e-08    0.000e+00
                 4.000e-08    0.000e+00


  vwwl  wwl               0                  0.000e+00  0.000e+00  0.000e+00 pwl  
                time        value

                 0.000e+00    0.000e+00
                 7.500e-09    0.000e+00
                 7.600e-09    9.000e-01
                 1.000e-08    9.000e-01
                 1.010e-08    0.000e+00
                 1.750e-08    0.000e+00
                 1.760e-08    9.000e-01
                 2.000e-08    9.000e-01
                 2.010e-08    0.000e+00
                 2.750e-08    0.000e+00
                 2.760e-08    9.000e-01
                 3.000e-08    9.000e-01
                 3.010e-08    0.000e+00
                 4.000e-08    0.000e+00


  vwwlb  wwlb              0                  9.000e-01  0.000e+00  0.000e+00 pwl  
                time        value

                 0.000e+00    9.000e-01
                 7.500e-09    9.000e-01
                 7.600e-09    0.000e+00
                 1.000e-08    0.000e+00
                 1.010e-08    9.000e-01
                 1.750e-08    9.000e-01
                 1.760e-08    0.000e+00
                 2.000e-08    0.000e+00
                 2.010e-08    9.000e-01
                 2.750e-08    9.000e-01
                 2.760e-08    0.000e+00
                 3.000e-08    0.000e+00
                 3.010e-08    9.000e-01
                 4.000e-08    9.000e-01




 **** subcircuit calls
    name        subcircuit         external nodes


         0:xcnt7    pcnfet          0:vdd         0:q           0:n2      
                               0:n2      


         0:xcnt8    pcnfet          0:vdd         0:q           0:qb      
                               0:qb      


         0:xcnt6    pcnfet          0:qb          0:qb          0:n2      
                               0:n2      


         0:xcnt5    ncnfet          0:qb          0:qb          0:n1      
                               0:n1      


         0:xcnt3    ncnfet          0:n1          0:q           0:0       
                               0:0       


         0:xcnt4    ncnfet          0:qb          0:q           0:0       
                               0:0       


         0:xcnt14   pcnfet          0:vdd         0:qb          0:q       
                               0:q       


         0:xcnt13   pcnfet          0:vdd         0:qb          0:n4      
                               0:n4      


         0:xcnt12   pcnfet          0:q           0:q           0:n4      
                               0:n4      


         0:xcnt11   ncnfet          0:q           0:q           0:n3      
                               0:n3      


         0:xcnt10   ncnfet          0:q           0:qb          0:0       
                               0:0       


         0:xcnt9    ncnfet          0:n3          0:qb          0:0       
                               0:0       


         0:xcnt2    pcnfet          0:q           0:wwlb        0:wbl     
                               0:wbl     


         0:xcnt1    ncnfet          0:wbl         0:wwl         0:q       
                               0:q       


         0:xcnt16   pcnfet          0:vdd         0:qb          0:n5      
                               0:n5      


         0:xcnt15   ncnfet          0:n5          0:qb          0:0       
                               0:0       


         0:xcnt18   pcnfet          0:rbl         0:rwlb        0:n5      
                               0:n5      


         0:xcnt17   ncnfet          0:n5          0:rwl         0:rbl     
                               0:rbl     


  
1****** HSPICE -- H-2013.03 64-BIT (Mar  7 2013) win64 ******                   
 ******  
 'inverter'

  ******  element node table
                                                                                      
 0                vdd              vrwl             vrwlb            vwbl             
                  vwwl             vwwlb                                              
 rbl              ic1                                                                 
 rwl              vrwl                                                                
 rwlb             vrwlb                                                               
 vdd              vdd                                                                 
 wbl              vwbl                                                                
 wwl              vwwl                                                                
 wwlb             vwwlb                                                               
  **warning** PIVOT option setting is simplified, pivot = 13 is obsolete,
              automatically switch to pivot = 1.
 *****************************************************************
 ******  option summary
 ******
 runlvl  = 3         bypass  = 2         
  Opening plot unit= 79
 file=sram2.pa0

 no convergence with standard algorithm,  trying damped pseudo-transient

  *** initial damped pseudo transient completed. ***
  *** final try started ***
 **info** remove gshunt failed
  **info** try to load final result like nodeset

 **info** although this circuit has failed to converge
 to gmindc=   1.000E-12, it did converge to a gmindc=   1.000E-10

  *** final try succeeded *** 
1****** HSPICE -- H-2013.03 64-BIT (Mar  7 2013) win64 ******                   
 ******  
 'inverter'

  ******  operating point information tnom=  25.000 temp=  25.000 *****
 ***** operating point status is voltage   simulation time is   0.000e+00
     node    =voltage       node    =voltage       node    =voltage

 + 0:n1      = 2.453e-02  0:n2      = 8.776e-01  0:n3      = 2.378e-02
 + 0:n4      = 8.768e-01  0:n5      = 7.736e-01  0:q       = 4.520e-01
 + 0:qb      = 4.535e-01  0:rbl     = 4.500e-01  0:rwl     = 0.000e+00
 + 0:rwlb    = 9.000e-01  0:vdd     = 9.000e-01  0:wbl     = 0.000e+00
 + 0:wwl     = 0.000e+00  0:wwlb    = 9.000e-01

 ******  
 'inverter'

  ******  transient analysis tnom=  25.000 temp=  25.000 *****
x

        time    voltage      voltage      voltage      voltage    
                     q           qb           rwl         rwlb    
  0.0000e+00    4.520e-01    4.535e-01    0.000e+00    9.000e-01  
  1.0000e-10    4.520e-01    4.535e-01    0.000e+00    9.000e-01  
  2.0000e-10    4.520e-01    4.535e-01    0.000e+00    9.000e-01  
  3.0000e-10    4.520e-01    4.535e-01    0.000e+00    9.000e-01  
  4.0000e-10    4.520e-01    4.535e-01    0.000e+00    9.000e-01  
  5.0000e-10    4.520e-01    4.535e-01    0.000e+00    9.000e-01  
  6.0000e-10    4.520e-01    4.535e-01    0.000e+00    9.000e-01  
  7.0000e-10    4.520e-01    4.535e-01    0.000e+00    9.000e-01  
  8.0000e-10    4.520e-01    4.535e-01    0.000e+00    9.000e-01  
  9.0000e-10    4.520e-01    4.535e-01    0.000e+00    9.000e-01  
  1.0000e-09    4.520e-01    4.535e-01    0.000e+00    9.000e-01  
  1.1000e-09    4.520e-01    4.535e-01    0.000e+00    9.000e-01  
  1.2000e-09    4.520e-01    4.535e-01    0.000e+00    9.000e-01  
  1.3000e-09    4.520e-01    4.535e-01    0.000e+00    9.000e-01  
  1.4000e-09    4.520e-01    4.535e-01    0.000e+00    9.000e-01  
  1.5000e-09    4.520e-01    4.535e-01    0.000e+00    9.000e-01  
  1.6000e-09    4.520e-01    4.535e-01    0.000e+00    9.000e-01  
  1.7000e-09    4.520e-01    4.535e-01    0.000e+00    9.000e-01  
  1.8000e-09    4.520e-01    4.535e-01    0.000e+00    9.000e-01  
  1.9000e-09    4.520e-01    4.535e-01    0.000e+00    9.000e-01  
  2.0000e-09    4.520e-01    4.535e-01    0.000e+00    9.000e-01  
  2.1000e-09    4.520e-01    4.535e-01    0.000e+00    9.000e-01  
  2.2000e-09    4.520e-01    4.535e-01    0.000e+00    9.000e-01  
  2.3000e-09    4.520e-01    4.535e-01    0.000e+00    9.000e-01  
  2.4000e-09    4.520e-01    4.535e-01    0.000e+00    9.000e-01  
  2.5000e-09    4.520e-01    4.535e-01    0.000e+00    9.000e-01  
  2.6000e-09    4.520e-01    4.535e-01    0.000e+00    9.000e-01  
  2.7000e-09    4.520e-01    4.535e-01    0.000e+00    9.000e-01  
  2.8000e-09    4.520e-01    4.535e-01    0.000e+00    9.000e-01  
  2.9000e-09    4.520e-01    4.535e-01    0.000e+00    9.000e-01  
  3.0000e-09    4.520e-01    4.535e-01    0.000e+00    9.000e-01  
  3.1000e-09    4.520e-01    4.535e-01    0.000e+00    9.000e-01  
  3.2000e-09    4.520e-01    4.535e-01    0.000e+00    9.000e-01  
  3.3000e-09    4.520e-01    4.535e-01    0.000e+00    9.000e-01  
  3.4000e-09    4.520e-01    4.535e-01    0.000e+00    9.000e-01  
  3.5000e-09    4.520e-01    4.535e-01    0.000e+00    9.000e-01  
  3.6000e-09    4.520e-01    4.535e-01    0.000e+00    9.000e-01  
  3.7000e-09    4.520e-01    4.535e-01    0.000e+00    9.000e-01  
  3.8000e-09    4.520e-01    4.535e-01    0.000e+00    9.000e-01  
  3.9000e-09    4.520e-01    4.535e-01    0.000e+00    9.000e-01  
  4.0000e-09    4.520e-01    4.535e-01    0.000e+00    9.000e-01  
  4.1000e-09    4.520e-01    4.535e-01    0.000e+00    9.000e-01  
  4.2000e-09    4.520e-01    4.535e-01    0.000e+00    9.000e-01  
  4.3000e-09    4.520e-01    4.535e-01    0.000e+00    9.000e-01  
  4.4000e-09    4.520e-01    4.535e-01    0.000e+00    9.000e-01  
  4.5000e-09    4.520e-01    4.535e-01    0.000e+00    9.000e-01  
  4.6000e-09    4.520e-01    4.535e-01    0.000e+00    9.000e-01  
  4.7000e-09    4.520e-01    4.535e-01    0.000e+00    9.000e-01  
  4.8000e-09    4.520e-01    4.535e-01    0.000e+00    9.000e-01  
  4.9000e-09    4.520e-01    4.535e-01    0.000e+00    9.000e-01  
  5.0000e-09    4.520e-01    4.535e-01    0.000e+00    9.000e-01  
  5.1000e-09    4.973e-01    4.573e-01    0.000e+00    9.000e-01  
  5.2000e-09    4.807e-01    4.467e-01    0.000e+00    9.000e-01  
  5.3000e-09    4.725e-01    4.439e-01    0.000e+00    9.000e-01  
  5.4000e-09    4.674e-01    4.435e-01    0.000e+00    9.000e-01  
  5.5000e-09    4.645e-01    4.444e-01    0.000e+00    9.000e-01  
  5.6000e-09    4.618e-01    4.453e-01    0.000e+00    9.000e-01  
  5.7000e-09    4.605e-01    4.463e-01    0.000e+00    9.000e-01  
  5.8000e-09    4.593e-01    4.474e-01    0.000e+00    9.000e-01  
  5.9000e-09    4.580e-01    4.484e-01    0.000e+00    9.000e-01  
  6.0000e-09    4.568e-01    4.494e-01    0.000e+00    9.000e-01  
  6.1000e-09    4.563e-01    4.498e-01    0.000e+00    9.000e-01  
  6.2000e-09    4.559e-01    4.503e-01    0.000e+00    9.000e-01  
  6.3000e-09    4.554e-01    4.507e-01    0.000e+00    9.000e-01  
  6.4000e-09    4.550e-01    4.511e-01    0.000e+00    9.000e-01  
  6.5000e-09    4.546e-01    4.515e-01    0.000e+00    9.000e-01  
  6.6000e-09    4.541e-01    4.519e-01    0.000e+00    9.000e-01  
  6.7000e-09    4.538e-01    4.523e-01    0.000e+00    9.000e-01  
  6.8000e-09    4.537e-01    4.524e-01    0.000e+00    9.000e-01  
  6.9000e-09    4.536e-01    4.524e-01    0.000e+00    9.000e-01  
  7.0000e-09    4.535e-01    4.525e-01    0.000e+00    9.000e-01  
  7.1000e-09    4.534e-01    4.526e-01    0.000e+00    9.000e-01  
  7.2000e-09    4.533e-01    4.527e-01    0.000e+00    9.000e-01  
  7.3000e-09    4.532e-01    4.528e-01    0.000e+00    9.000e-01  
  7.4000e-09    4.531e-01    4.528e-01    0.000e+00    9.000e-01  
  7.5000e-09    4.531e-01    4.529e-01    0.000e+00    9.000e-01  
  7.6000e-09    4.900e-01    4.549e-01    0.000e+00    9.000e-01  
  7.7000e-09    4.592e-01    4.459e-01    0.000e+00    9.000e-01  
  7.8000e-09    4.532e-01    4.474e-01    0.000e+00    9.000e-01  
  7.9000e-09    4.518e-01    4.493e-01    0.000e+00    9.000e-01  
  8.0000e-09    4.512e-01    4.509e-01    0.000e+00    9.000e-01  
  8.1000e-09    4.510e-01    4.518e-01    0.000e+00    9.000e-01  
  8.2000e-09    4.509e-01    4.527e-01    0.000e+00    9.000e-01  
  8.3000e-09    4.508e-01    4.531e-01    0.000e+00    9.000e-01  
  8.4000e-09    4.507e-01    4.534e-01    0.000e+00    9.000e-01  
  8.5000e-09    4.507e-01    4.536e-01    0.000e+00    9.000e-01  
  8.6000e-09    4.506e-01    4.538e-01    0.000e+00    9.000e-01  
  8.7000e-09    4.506e-01    4.541e-01    0.000e+00    9.000e-01  
  8.8000e-09    4.506e-01    4.541e-01    0.000e+00    9.000e-01  
  8.9000e-09    4.506e-01    4.542e-01    0.000e+00    9.000e-01  
  9.0000e-09    4.506e-01    4.542e-01    0.000e+00    9.000e-01  
  9.1000e-09    4.506e-01    4.542e-01    0.000e+00    9.000e-01  
  9.2000e-09    4.506e-01    4.542e-01    0.000e+00    9.000e-01  
  9.3000e-09    4.506e-01    4.542e-01    0.000e+00    9.000e-01  
  9.4000e-09    4.506e-01    4.542e-01    0.000e+00    9.000e-01  
  9.5000e-09    4.506e-01    4.542e-01    0.000e+00    9.000e-01  
  9.6000e-09    4.506e-01    4.542e-01    0.000e+00    9.000e-01  
  9.7000e-09    4.506e-01    4.542e-01    0.000e+00    9.000e-01  
  9.8000e-09    4.506e-01    4.542e-01    0.000e+00    9.000e-01  
  9.9000e-09    4.506e-01    4.542e-01    0.000e+00    9.000e-01  
  1.0000e-08    4.506e-01    4.542e-01    0.000e+00    9.000e-01  
  1.0100e-08    3.606e-01    4.553e-01    0.000e+00    9.000e-01  
  1.0200e-08    3.913e-01    4.830e-01    0.000e+00    9.000e-01  
  1.0300e-08    4.048e-01    4.882e-01    0.000e+00    9.000e-01  
  1.0400e-08    4.138e-01    4.878e-01    0.000e+00    9.000e-01  
  1.0500e-08    4.201e-01    4.844e-01    0.000e+00    9.000e-01  
  1.0600e-08    4.250e-01    4.807e-01    0.000e+00    9.000e-01  
  1.0700e-08    4.290e-01    4.769e-01    0.000e+00    9.000e-01  
  1.0800e-08    4.330e-01    4.730e-01    0.000e+00    9.000e-01  
  1.0900e-08    4.359e-01    4.701e-01    0.000e+00    9.000e-01  
  1.1000e-08    4.381e-01    4.677e-01    0.000e+00    9.000e-01  
  1.1100e-08    4.403e-01    4.653e-01    0.000e+00    9.000e-01  
  1.1200e-08    4.426e-01    4.630e-01    0.000e+00    9.000e-01  
  1.1300e-08    4.447e-01    4.607e-01    0.000e+00    9.000e-01  
  1.1400e-08    4.455e-01    4.599e-01    0.000e+00    9.000e-01  
  1.1500e-08    4.462e-01    4.592e-01    0.000e+00    9.000e-01  
  1.1600e-08    4.470e-01    4.584e-01    0.000e+00    9.000e-01  
  1.1700e-08    4.478e-01    4.577e-01    0.000e+00    9.000e-01  
  1.1800e-08    4.486e-01    4.569e-01    0.000e+00    9.000e-01  
  1.1900e-08    4.494e-01    4.561e-01    0.000e+00    9.000e-01  
  1.2000e-08    4.501e-01    4.554e-01    0.000e+00    9.000e-01  
  1.2100e-08    4.509e-01    4.546e-01    0.000e+00    9.000e-01  
  1.2200e-08    4.513e-01    4.543e-01    0.000e+00    9.000e-01  
  1.2300e-08    4.514e-01    4.542e-01    0.000e+00    9.000e-01  
  1.2400e-08    4.515e-01    4.540e-01    0.000e+00    9.000e-01  
  1.2500e-08    4.516e-01    4.539e-01    0.000e+00    9.000e-01  
  1.2600e-08    4.511e-01    4.473e-01    9.000e-01    0.000e+00  
  1.2700e-08    4.527e-01    4.498e-01    9.000e-01    0.000e+00  
  1.2800e-08    4.531e-01    4.511e-01    9.000e-01    0.000e+00  
  1.2900e-08    4.532e-01    4.518e-01    9.000e-01    0.000e+00  
  1.3000e-08    4.531e-01    4.523e-01    9.000e-01    0.000e+00  
  1.3100e-08    4.530e-01    4.527e-01    9.000e-01    0.000e+00  
  1.3200e-08    4.529e-01    4.528e-01    9.000e-01    0.000e+00  
  1.3300e-08    4.527e-01    4.529e-01    9.000e-01    0.000e+00  
  1.3400e-08    4.526e-01    4.531e-01    9.000e-01    0.000e+00  
  1.3500e-08    4.525e-01    4.532e-01    9.000e-01    0.000e+00  
  1.3600e-08    4.524e-01    4.533e-01    9.000e-01    0.000e+00  
  1.3700e-08    4.522e-01    4.534e-01    9.000e-01    0.000e+00  
  1.3800e-08    4.521e-01    4.535e-01    9.000e-01    0.000e+00  
  1.3900e-08    4.521e-01    4.535e-01    9.000e-01    0.000e+00  
  1.4000e-08    4.521e-01    4.536e-01    9.000e-01    0.000e+00  
  1.4100e-08    4.521e-01    4.536e-01    9.000e-01    0.000e+00  
  1.4200e-08    4.521e-01    4.536e-01    9.000e-01    0.000e+00  
  1.4300e-08    4.520e-01    4.536e-01    9.000e-01    0.000e+00  
  1.4400e-08    4.520e-01    4.536e-01    9.000e-01    0.000e+00  
  1.4500e-08    4.520e-01    4.537e-01    9.000e-01    0.000e+00  
  1.4600e-08    4.520e-01    4.537e-01    9.000e-01    0.000e+00  
  1.4700e-08    4.519e-01    4.537e-01    9.000e-01    0.000e+00  
  1.4800e-08    4.519e-01    4.537e-01    9.000e-01    0.000e+00  
  1.4900e-08    4.519e-01    4.537e-01    9.000e-01    0.000e+00  
  1.5000e-08    4.519e-01    4.537e-01    9.000e-01    0.000e+00  
  1.5100e-08    5.460e-01    4.682e-01    0.000e+00    9.000e-01  
  1.5200e-08    5.108e-01    4.406e-01    0.000e+00    9.000e-01  
  1.5300e-08    4.947e-01    4.337e-01    0.000e+00    9.000e-01  
  1.5400e-08    4.847e-01    4.326e-01    0.000e+00    9.000e-01  
  1.5500e-08    4.786e-01    4.342e-01    0.000e+00    9.000e-01  
  1.5600e-08    4.731e-01    4.362e-01    0.000e+00    9.000e-01  
  1.5700e-08    4.702e-01    4.384e-01    0.000e+00    9.000e-01  
  1.5800e-08    4.672e-01    4.405e-01    0.000e+00    9.000e-01  
  1.5900e-08    4.643e-01    4.427e-01    0.000e+00    9.000e-01  
  1.6000e-08    4.623e-01    4.443e-01    0.000e+00    9.000e-01  
  1.6100e-08    4.611e-01    4.455e-01    0.000e+00    9.000e-01  
  1.6200e-08    4.598e-01    4.467e-01    0.000e+00    9.000e-01  
  1.6300e-08    4.585e-01    4.478e-01    0.000e+00    9.000e-01  
  1.6400e-08    4.573e-01    4.490e-01    0.000e+00    9.000e-01  
  1.6500e-08    4.563e-01    4.500e-01    0.000e+00    9.000e-01  
  1.6600e-08    4.559e-01    4.503e-01    0.000e+00    9.000e-01  
  1.6700e-08    4.556e-01    4.506e-01    0.000e+00    9.000e-01  
  1.6800e-08    4.552e-01    4.509e-01    0.000e+00    9.000e-01  
  1.6900e-08    4.549e-01    4.512e-01    0.000e+00    9.000e-01  
  1.7000e-08    4.545e-01    4.515e-01    0.000e+00    9.000e-01  
  1.7100e-08    4.542e-01    4.519e-01    0.000e+00    9.000e-01  
  1.7200e-08    4.538e-01    4.522e-01    0.000e+00    9.000e-01  
  1.7300e-08    4.535e-01    4.525e-01    0.000e+00    9.000e-01  
  1.7400e-08    4.532e-01    4.527e-01    0.000e+00    9.000e-01  
  1.7500e-08    4.532e-01    4.528e-01    0.000e+00    9.000e-01  
  1.7600e-08    8.817e-01    3.590e-01    0.000e+00    9.000e-01  
  1.7700e-08    8.998e-01    5.450e-02    0.000e+00    9.000e-01  
  1.7800e-08    8.999e-01    5.433e-02    0.000e+00    9.000e-01  
  1.7900e-08    9.000e-01    5.432e-02    0.000e+00    9.000e-01  
  1.8000e-08    9.000e-01    5.428e-02    0.000e+00    9.000e-01  
  1.8100e-08    8.999e-01    5.427e-02    0.000e+00    9.000e-01  
  1.8200e-08    9.000e-01    5.428e-02    0.000e+00    9.000e-01  
  1.8300e-08    9.000e-01    5.430e-02    0.000e+00    9.000e-01  
  1.8400e-08    9.000e-01    5.428e-02    0.000e+00    9.000e-01  
  1.8500e-08    9.000e-01    5.427e-02    0.000e+00    9.000e-01  
  1.8600e-08    9.000e-01    5.425e-02    0.000e+00    9.000e-01  
  1.8700e-08    8.999e-01    5.424e-02    0.000e+00    9.000e-01  
  1.8800e-08    9.000e-01    5.425e-02    0.000e+00    9.000e-01  
  1.8900e-08    9.000e-01    5.426e-02    0.000e+00    9.000e-01  
  1.9000e-08    9.000e-01    5.427e-02    0.000e+00    9.000e-01  
  1.9100e-08    9.000e-01    5.427e-02    0.000e+00    9.000e-01  
  1.9200e-08    9.000e-01    5.428e-02    0.000e+00    9.000e-01  
  1.9300e-08    9.001e-01    5.429e-02    0.000e+00    9.000e-01  
  1.9400e-08    9.000e-01    5.428e-02    0.000e+00    9.000e-01  
  1.9500e-08    9.000e-01    5.427e-02    0.000e+00    9.000e-01  
  1.9600e-08    9.000e-01    5.427e-02    0.000e+00    9.000e-01  
  1.9700e-08    9.000e-01    5.426e-02    0.000e+00    9.000e-01  
  1.9800e-08    9.000e-01    5.425e-02    0.000e+00    9.000e-01  
  1.9900e-08    9.000e-01    5.424e-02    0.000e+00    9.000e-01  
  2.0000e-08    8.999e-01    5.424e-02    0.000e+00    9.000e-01  
  2.0100e-08    8.290e-01    5.796e-02    0.000e+00    9.000e-01  
  2.0200e-08    8.201e-01    6.414e-02    0.000e+00    9.000e-01  
  2.0300e-08    8.201e-01    6.420e-02    0.000e+00    9.000e-01  
  2.0400e-08    8.201e-01    6.417e-02    0.000e+00    9.000e-01  
  2.0500e-08    8.201e-01    6.415e-02    0.000e+00    9.000e-01  
  2.0600e-08    8.201e-01    6.415e-02    0.000e+00    9.000e-01  
  2.0700e-08    8.201e-01    6.416e-02    0.000e+00    9.000e-01  
  2.0800e-08    8.201e-01    6.417e-02    0.000e+00    9.000e-01  
  2.0900e-08    8.201e-01    6.418e-02    0.000e+00    9.000e-01  
  2.1000e-08    8.201e-01    6.420e-02    0.000e+00    9.000e-01  
  2.1100e-08    8.201e-01    6.421e-02    0.000e+00    9.000e-01  
  2.1200e-08    8.201e-01    6.420e-02    0.000e+00    9.000e-01  
  2.1300e-08    8.201e-01    6.420e-02    0.000e+00    9.000e-01  
  2.1400e-08    8.201e-01    6.419e-02    0.000e+00    9.000e-01  
  2.1500e-08    8.201e-01    6.419e-02    0.000e+00    9.000e-01  
  2.1600e-08    8.201e-01    6.418e-02    0.000e+00    9.000e-01  
  2.1700e-08    8.201e-01    6.418e-02    0.000e+00    9.000e-01  
  2.1800e-08    8.201e-01    6.417e-02    0.000e+00    9.000e-01  
  2.1900e-08    8.201e-01    6.417e-02    0.000e+00    9.000e-01  
  2.2000e-08    8.201e-01    6.416e-02    0.000e+00    9.000e-01  
  2.2100e-08    8.201e-01    6.416e-02    0.000e+00    9.000e-01  
  2.2200e-08    8.201e-01    6.415e-02    0.000e+00    9.000e-01  
  2.2300e-08    8.201e-01    6.415e-02    0.000e+00    9.000e-01  
  2.2400e-08    8.201e-01    6.414e-02    0.000e+00    9.000e-01  
  2.2500e-08    8.201e-01    6.414e-02    0.000e+00    9.000e-01  
  2.2600e-08    8.201e-01    6.423e-02    9.000e-01    0.000e+00  
  2.2700e-08    8.201e-01    6.417e-02    9.000e-01    0.000e+00  
  2.2800e-08    8.201e-01    6.417e-02    9.000e-01    0.000e+00  
  2.2900e-08    8.201e-01    6.417e-02    9.000e-01    0.000e+00  
  2.3000e-08    8.201e-01    6.418e-02    9.000e-01    0.000e+00  
  2.3100e-08    8.201e-01    6.418e-02    9.000e-01    0.000e+00  
  2.3200e-08    8.201e-01    6.418e-02    9.000e-01    0.000e+00  
  2.3300e-08    8.201e-01    6.418e-02    9.000e-01    0.000e+00  
  2.3400e-08    8.201e-01    6.418e-02    9.000e-01    0.000e+00  
  2.3500e-08    8.201e-01    6.417e-02    9.000e-01    0.000e+00  
  2.3600e-08    8.201e-01    6.417e-02    9.000e-01    0.000e+00  
  2.3700e-08    8.201e-01    6.417e-02    9.000e-01    0.000e+00  
  2.3800e-08    8.201e-01    6.417e-02    9.000e-01    0.000e+00  
  2.3900e-08    8.201e-01    6.417e-02    9.000e-01    0.000e+00  
  2.4000e-08    8.201e-01    6.417e-02    9.000e-01    0.000e+00  
  2.4100e-08    8.201e-01    6.417e-02    9.000e-01    0.000e+00  
  2.4200e-08    8.201e-01    6.417e-02    9.000e-01    0.000e+00  
  2.4300e-08    8.201e-01    6.417e-02    9.000e-01    0.000e+00  
  2.4400e-08    8.201e-01    6.417e-02    9.000e-01    0.000e+00  
  2.4500e-08    8.201e-01    6.417e-02    9.000e-01    0.000e+00  
  2.4600e-08    8.201e-01    6.418e-02    9.000e-01    0.000e+00  
  2.4700e-08    8.201e-01    6.418e-02    9.000e-01    0.000e+00  
  2.4800e-08    8.201e-01    6.418e-02    9.000e-01    0.000e+00  
  2.4900e-08    8.201e-01    6.418e-02    9.000e-01    0.000e+00  
  2.5000e-08    8.201e-01    6.418e-02    9.000e-01    0.000e+00  
  2.5100e-08    8.201e-01    6.411e-02    0.000e+00    9.000e-01  
  2.5200e-08    8.201e-01    6.418e-02    0.000e+00    9.000e-01  
  2.5300e-08    8.201e-01    6.418e-02    0.000e+00    9.000e-01  
  2.5400e-08    8.201e-01    6.418e-02    0.000e+00    9.000e-01  
  2.5500e-08    8.201e-01    6.417e-02    0.000e+00    9.000e-01  
  2.5600e-08    8.201e-01    6.417e-02    0.000e+00    9.000e-01  
  2.5700e-08    8.201e-01    6.417e-02    0.000e+00    9.000e-01  
  2.5800e-08    8.201e-01    6.417e-02    0.000e+00    9.000e-01  
  2.5900e-08    8.201e-01    6.417e-02    0.000e+00    9.000e-01  
  2.6000e-08    8.201e-01    6.417e-02    0.000e+00    9.000e-01  
  2.6100e-08    8.201e-01    6.417e-02    0.000e+00    9.000e-01  
  2.6200e-08    8.201e-01    6.417e-02    0.000e+00    9.000e-01  
  2.6300e-08    8.201e-01    6.417e-02    0.000e+00    9.000e-01  
  2.6400e-08    8.201e-01    6.417e-02    0.000e+00    9.000e-01  
  2.6500e-08    8.201e-01    6.418e-02    0.000e+00    9.000e-01  
  2.6600e-08    8.201e-01    6.418e-02    0.000e+00    9.000e-01  
  2.6700e-08    8.201e-01    6.418e-02    0.000e+00    9.000e-01  
  2.6800e-08    8.201e-01    6.418e-02    0.000e+00    9.000e-01  
  2.6900e-08    8.201e-01    6.417e-02    0.000e+00    9.000e-01  
  2.7000e-08    8.201e-01    6.417e-02    0.000e+00    9.000e-01  
  2.7100e-08    8.201e-01    6.417e-02    0.000e+00    9.000e-01  
  2.7200e-08    8.201e-01    6.417e-02    0.000e+00    9.000e-01  
  2.7300e-08    8.201e-01    6.417e-02    0.000e+00    9.000e-01  
  2.7400e-08    8.201e-01    6.417e-02    0.000e+00    9.000e-01  
  2.7500e-08    8.201e-01    6.417e-02    0.000e+00    9.000e-01  
  2.7600e-08    5.702e-02    3.045e-01    0.000e+00    9.000e-01  
  2.7700e-08    2.756e-02    8.990e-01    0.000e+00    9.000e-01  
  2.7800e-08    2.739e-02    8.997e-01    0.000e+00    9.000e-01  
  2.7900e-08    2.741e-02    8.999e-01    0.000e+00    9.000e-01  
  2.8000e-08    2.737e-02    8.999e-01    0.000e+00    9.000e-01  
  2.8100e-08    2.738e-02    8.999e-01    0.000e+00    9.000e-01  
  2.8200e-08    2.740e-02    9.000e-01    0.000e+00    9.000e-01  
  2.8300e-08    2.739e-02    9.000e-01    0.000e+00    9.000e-01  
  2.8400e-08    2.737e-02    8.999e-01    0.000e+00    9.000e-01  
  2.8500e-08    2.736e-02    8.999e-01    0.000e+00    9.000e-01  
  2.8600e-08    2.736e-02    8.999e-01    0.000e+00    9.000e-01  
  2.8700e-08    2.737e-02    8.999e-01    0.000e+00    9.000e-01  
  2.8800e-08    2.737e-02    9.000e-01    0.000e+00    9.000e-01  
  2.8900e-08    2.738e-02    9.000e-01    0.000e+00    9.000e-01  
  2.9000e-08    2.739e-02    9.000e-01    0.000e+00    9.000e-01  
  2.9100e-08    2.739e-02    9.000e-01    0.000e+00    9.000e-01  
  2.9200e-08    2.738e-02    9.000e-01    0.000e+00    9.000e-01  
  2.9300e-08    2.738e-02    9.000e-01    0.000e+00    9.000e-01  
  2.9400e-08    2.737e-02    9.000e-01    0.000e+00    9.000e-01  
  2.9500e-08    2.737e-02    9.000e-01    0.000e+00    9.000e-01  
  2.9600e-08    2.736e-02    9.000e-01    0.000e+00    9.000e-01  
  2.9700e-08    2.736e-02    8.999e-01    0.000e+00    9.000e-01  
  2.9800e-08    2.735e-02    8.999e-01    0.000e+00    9.000e-01  
  2.9900e-08    2.737e-02    9.000e-01    0.000e+00    9.000e-01  
  3.0000e-08    2.739e-02    9.000e-01    0.000e+00    9.000e-01  
  3.0100e-08    5.266e-02    9.000e-01    0.000e+00    9.000e-01  
  3.0200e-08    5.428e-02    9.000e-01    0.000e+00    9.000e-01  
  3.0300e-08    5.431e-02    9.000e-01    0.000e+00    9.000e-01  
  3.0400e-08    5.428e-02    9.000e-01    0.000e+00    9.000e-01  
  3.0500e-08    5.425e-02    9.000e-01    0.000e+00    9.000e-01  
  3.0600e-08    5.423e-02    9.000e-01    0.000e+00    9.000e-01  
  3.0700e-08    5.423e-02    9.000e-01    0.000e+00    9.000e-01  
  3.0800e-08    5.424e-02    9.000e-01    0.000e+00    9.000e-01  
  3.0900e-08    5.425e-02    9.000e-01    0.000e+00    9.000e-01  
  3.1000e-08    5.426e-02    9.000e-01    0.000e+00    9.000e-01  
  3.1100e-08    5.427e-02    9.000e-01    0.000e+00    9.000e-01  
  3.1200e-08    5.427e-02    9.000e-01    0.000e+00    9.000e-01  
  3.1300e-08    5.428e-02    9.000e-01    0.000e+00    9.000e-01  
  3.1400e-08    5.429e-02    9.000e-01    0.000e+00    9.000e-01  
  3.1500e-08    5.429e-02    9.000e-01    0.000e+00    9.000e-01  
  3.1600e-08    5.428e-02    9.000e-01    0.000e+00    9.000e-01  
  3.1700e-08    5.427e-02    9.000e-01    0.000e+00    9.000e-01  
  3.1800e-08    5.427e-02    9.000e-01    0.000e+00    9.000e-01  
  3.1900e-08    5.426e-02    9.000e-01    0.000e+00    9.000e-01  
  3.2000e-08    5.426e-02    9.000e-01    0.000e+00    9.000e-01  
  3.2100e-08    5.425e-02    9.000e-01    0.000e+00    9.000e-01  
  3.2200e-08    5.424e-02    9.000e-01    0.000e+00    9.000e-01  
  3.2300e-08    5.424e-02    9.000e-01    0.000e+00    9.000e-01  
  3.2400e-08    5.423e-02    9.000e-01    0.000e+00    9.000e-01  
  3.2500e-08    5.423e-02    9.000e-01    0.000e+00    9.000e-01  
  3.2600e-08    5.429e-02    8.996e-01    9.000e-01    0.000e+00  
  3.2700e-08    5.426e-02    9.000e-01    9.000e-01    0.000e+00  
  3.2800e-08    5.426e-02    9.000e-01    9.000e-01    0.000e+00  
  3.2900e-08    5.427e-02    9.000e-01    9.000e-01    0.000e+00  
  3.3000e-08    5.427e-02    9.000e-01    9.000e-01    0.000e+00  
  3.3100e-08    5.427e-02    9.000e-01    9.000e-01    0.000e+00  
  3.3200e-08    5.426e-02    9.000e-01    9.000e-01    0.000e+00  
  3.3300e-08    5.426e-02    9.000e-01    9.000e-01    0.000e+00  
  3.3400e-08    5.426e-02    9.000e-01    9.000e-01    0.000e+00  
  3.3500e-08    5.426e-02    9.000e-01    9.000e-01    0.000e+00  
  3.3600e-08    5.426e-02    9.000e-01    9.000e-01    0.000e+00  
  3.3700e-08    5.426e-02    9.000e-01    9.000e-01    0.000e+00  
  3.3800e-08    5.426e-02    9.000e-01    9.000e-01    0.000e+00  
  3.3900e-08    5.426e-02    9.000e-01    9.000e-01    0.000e+00  
  3.4000e-08    5.426e-02    9.000e-01    9.000e-01    0.000e+00  
  3.4100e-08    5.426e-02    9.000e-01    9.000e-01    0.000e+00  
  3.4200e-08    5.426e-02    9.000e-01    9.000e-01    0.000e+00  
  3.4300e-08    5.427e-02    9.000e-01    9.000e-01    0.000e+00  
  3.4400e-08    5.427e-02    9.000e-01    9.000e-01    0.000e+00  
  3.4500e-08    5.427e-02    9.000e-01    9.000e-01    0.000e+00  
  3.4600e-08    5.427e-02    9.000e-01    9.000e-01    0.000e+00  
  3.4700e-08    5.427e-02    9.000e-01    9.000e-01    0.000e+00  
  3.4800e-08    5.427e-02    9.000e-01    9.000e-01    0.000e+00  
  3.4900e-08    5.426e-02    9.000e-01    9.000e-01    0.000e+00  
  3.5000e-08    5.426e-02    9.000e-01    9.000e-01    0.000e+00  
  3.5100e-08    5.426e-02    9.000e-01    9.000e-01    0.000e+00  
  3.5200e-08    5.426e-02    9.000e-01    9.000e-01    0.000e+00  
  3.5300e-08    5.426e-02    9.000e-01    9.000e-01    0.000e+00  
  3.5400e-08    5.426e-02    9.000e-01    9.000e-01    0.000e+00  
  3.5500e-08    5.426e-02    9.000e-01    9.000e-01    0.000e+00  
  3.5600e-08    5.426e-02    9.000e-01    9.000e-01    0.000e+00  
  3.5700e-08    5.426e-02    9.000e-01    9.000e-01    0.000e+00  
  3.5800e-08    5.426e-02    9.000e-01    9.000e-01    0.000e+00  
  3.5900e-08    5.426e-02    9.000e-01    9.000e-01    0.000e+00  
  3.6000e-08    5.426e-02    9.000e-01    9.000e-01    0.000e+00  
  3.6100e-08    5.426e-02    9.000e-01    9.000e-01    0.000e+00  
  3.6200e-08    5.426e-02    9.000e-01    9.000e-01    0.000e+00  
  3.6300e-08    5.426e-02    9.000e-01    9.000e-01    0.000e+00  
  3.6400e-08    5.426e-02    9.000e-01    9.000e-01    0.000e+00  
  3.6500e-08    5.426e-02    9.000e-01    9.000e-01    0.000e+00  
  3.6600e-08    5.426e-02    9.000e-01    9.000e-01    0.000e+00  
  3.6700e-08    5.426e-02    9.000e-01    9.000e-01    0.000e+00  
  3.6800e-08    5.426e-02    9.000e-01    9.000e-01    0.000e+00  
  3.6900e-08    5.426e-02    9.000e-01    9.000e-01    0.000e+00  
  3.7000e-08    5.426e-02    9.000e-01    9.000e-01    0.000e+00  
  3.7100e-08    5.426e-02    9.000e-01    9.000e-01    0.000e+00  
  3.7200e-08    5.426e-02    9.000e-01    9.000e-01    0.000e+00  
  3.7300e-08    5.426e-02    9.000e-01    9.000e-01    0.000e+00  
  3.7400e-08    5.426e-02    9.000e-01    9.000e-01    0.000e+00  
  3.7500e-08    5.426e-02    9.000e-01    9.000e-01    0.000e+00  
  3.7600e-08    5.426e-02    9.000e-01    9.000e-01    0.000e+00  
  3.7700e-08    5.426e-02    9.000e-01    9.000e-01    0.000e+00  
  3.7800e-08    5.426e-02    9.000e-01    9.000e-01    0.000e+00  
  3.7900e-08    5.426e-02    9.000e-01    9.000e-01    0.000e+00  
  3.8000e-08    5.426e-02    9.000e-01    9.000e-01    0.000e+00  
  3.8100e-08    5.426e-02    9.000e-01    9.000e-01    0.000e+00  
  3.8200e-08    5.426e-02    9.000e-01    9.000e-01    0.000e+00  
  3.8300e-08    5.426e-02    9.000e-01    9.000e-01    0.000e+00  
  3.8400e-08    5.426e-02    9.000e-01    9.000e-01    0.000e+00  
  3.8500e-08    5.426e-02    9.000e-01    9.000e-01    0.000e+00  
  3.8600e-08    5.426e-02    9.000e-01    9.000e-01    0.000e+00  
  3.8700e-08    5.426e-02    9.000e-01    9.000e-01    0.000e+00  
  3.8800e-08    5.426e-02    9.000e-01    9.000e-01    0.000e+00  
  3.8900e-08    5.426e-02    9.000e-01    9.000e-01    0.000e+00  
  3.9000e-08    5.426e-02    9.000e-01    9.000e-01    0.000e+00  
  3.9100e-08    5.426e-02    9.000e-01    9.000e-01    0.000e+00  
  3.9200e-08    5.426e-02    9.000e-01    9.000e-01    0.000e+00  
  3.9300e-08    5.426e-02    9.000e-01    9.000e-01    0.000e+00  
  3.9400e-08    5.426e-02    9.000e-01    9.000e-01    0.000e+00  
  3.9500e-08    5.426e-02    9.000e-01    9.000e-01    0.000e+00  
  3.9600e-08    5.426e-02    9.000e-01    9.000e-01    0.000e+00  
  3.9700e-08    5.426e-02    9.000e-01    9.000e-01    0.000e+00  
  3.9800e-08    5.426e-02    9.000e-01    9.000e-01    0.000e+00  
  3.9900e-08    5.426e-02    9.000e-01    9.000e-01    0.000e+00  
  4.0000e-08    5.426e-02    9.000e-01    9.000e-01    0.000e+00  
y
x

        time    voltage    
                    rbl    
  0.0000e+00    4.500e-01  
  1.0000e-10    4.499e-01  
  2.0000e-10    4.497e-01  
  3.0000e-10    4.496e-01  
  4.0000e-10    4.494e-01  
  5.0000e-10    4.493e-01  
  6.0000e-10    4.491e-01  
  7.0000e-10    4.490e-01  
  8.0000e-10    4.489e-01  
  9.0000e-10    4.487e-01  
  1.0000e-09    4.486e-01  
  1.1000e-09    4.484e-01  
  1.2000e-09    4.483e-01  
  1.3000e-09    4.482e-01  
  1.4000e-09    4.480e-01  
  1.5000e-09    4.479e-01  
  1.6000e-09    4.478e-01  
  1.7000e-09    4.476e-01  
  1.8000e-09    4.475e-01  
  1.9000e-09    4.473e-01  
  2.0000e-09    4.472e-01  
  2.1000e-09    4.471e-01  
  2.2000e-09    4.469e-01  
  2.3000e-09    4.468e-01  
  2.4000e-09    4.467e-01  
  2.5000e-09    4.465e-01  
  2.6000e-09    4.464e-01  
  2.7000e-09    4.463e-01  
  2.8000e-09    4.461e-01  
  2.9000e-09    4.460e-01  
  3.0000e-09    4.459e-01  
  3.1000e-09    4.457e-01  
  3.2000e-09    4.456e-01  
  3.3000e-09    4.455e-01  
  3.4000e-09    4.453e-01  
  3.5000e-09    4.452e-01  
  3.6000e-09    4.451e-01  
  3.7000e-09    4.449e-01  
  3.8000e-09    4.448e-01  
  3.9000e-09    4.447e-01  
  4.0000e-09    4.445e-01  
  4.1000e-09    4.444e-01  
  4.2000e-09    4.443e-01  
  4.3000e-09    4.441e-01  
  4.4000e-09    4.440e-01  
  4.5000e-09    4.439e-01  
  4.6000e-09    4.438e-01  
  4.7000e-09    4.436e-01  
  4.8000e-09    4.435e-01  
  4.9000e-09    4.434e-01  
  5.0000e-09    4.432e-01  
  5.1000e-09    4.431e-01  
  5.2000e-09    4.420e-01  
  5.3000e-09    4.428e-01  
  5.4000e-09    4.442e-01  
  5.5000e-09    4.456e-01  
  5.6000e-09    4.470e-01  
  5.7000e-09    4.479e-01  
  5.8000e-09    4.488e-01  
  5.9000e-09    4.497e-01  
  6.0000e-09    4.506e-01  
  6.1000e-09    4.509e-01  
  6.2000e-09    4.511e-01  
  6.3000e-09    4.513e-01  
  6.4000e-09    4.515e-01  
  6.5000e-09    4.517e-01  
  6.6000e-09    4.519e-01  
  6.7000e-09    4.521e-01  
  6.8000e-09    4.520e-01  
  6.9000e-09    4.519e-01  
  7.0000e-09    4.518e-01  
  7.1000e-09    4.517e-01  
  7.2000e-09    4.515e-01  
  7.3000e-09    4.514e-01  
  7.4000e-09    4.513e-01  
  7.5000e-09    4.512e-01  
  7.6000e-09    4.509e-01  
  7.7000e-09    4.502e-01  
  7.8000e-09    4.512e-01  
  7.9000e-09    4.519e-01  
  8.0000e-09    4.524e-01  
  8.1000e-09    4.525e-01  
  8.2000e-09    4.526e-01  
  8.3000e-09    4.525e-01  
  8.4000e-09    4.522e-01  
  8.5000e-09    4.520e-01  
  8.6000e-09    4.517e-01  
  8.7000e-09    4.515e-01  
  8.8000e-09    4.512e-01  
  8.9000e-09    4.508e-01  
  9.0000e-09    4.504e-01  
  9.1000e-09    4.501e-01  
  9.2000e-09    4.497e-01  
  9.3000e-09    4.494e-01  
  9.4000e-09    4.490e-01  
  9.5000e-09    4.487e-01  
  9.6000e-09    4.483e-01  
  9.7000e-09    4.480e-01  
  9.8000e-09    4.476e-01  
  9.9000e-09    4.473e-01  
  1.0000e-08    4.469e-01  
  1.0100e-08    4.473e-01  
  1.0200e-08    4.477e-01  
  1.0300e-08    4.423e-01  
  1.0400e-08    4.359e-01  
  1.0500e-08    4.294e-01  
  1.0600e-08    4.241e-01  
  1.0700e-08    4.195e-01  
  1.0800e-08    4.148e-01  
  1.0900e-08    4.116e-01  
  1.1000e-08    4.094e-01  
  1.1100e-08    4.071e-01  
  1.1200e-08    4.049e-01  
  1.1300e-08    4.027e-01  
  1.1400e-08    4.022e-01  
  1.1500e-08    4.017e-01  
  1.1600e-08    4.012e-01  
  1.1700e-08    4.007e-01  
  1.1800e-08    4.002e-01  
  1.1900e-08    3.997e-01  
  1.2000e-08    3.992e-01  
  1.2100e-08    3.987e-01  
  1.2200e-08    3.986e-01  
  1.2300e-08    3.988e-01  
  1.2400e-08    3.990e-01  
  1.2500e-08    3.991e-01  
  1.2600e-08    5.831e-01  
  1.2700e-08    5.928e-01  
  1.2800e-08    5.948e-01  
  1.2900e-08    5.965e-01  
  1.3000e-08    5.981e-01  
  1.3100e-08    5.997e-01  
  1.3200e-08    6.010e-01  
  1.3300e-08    6.024e-01  
  1.3400e-08    6.038e-01  
  1.3500e-08    6.051e-01  
  1.3600e-08    6.065e-01  
  1.3700e-08    6.078e-01  
  1.3800e-08    6.091e-01  
  1.3900e-08    6.103e-01  
  1.4000e-08    6.114e-01  
  1.4100e-08    6.126e-01  
  1.4200e-08    6.137e-01  
  1.4300e-08    6.148e-01  
  1.4400e-08    6.160e-01  
  1.4500e-08    6.171e-01  
  1.4600e-08    6.183e-01  
  1.4700e-08    6.194e-01  
  1.4800e-08    6.206e-01  
  1.4900e-08    6.217e-01  
  1.5000e-08    6.228e-01  
  1.5100e-08    5.780e-01  
  1.5200e-08    5.745e-01  
  1.5300e-08    5.763e-01  
  1.5400e-08    5.794e-01  
  1.5500e-08    5.827e-01  
  1.5600e-08    5.860e-01  
  1.5700e-08    5.882e-01  
  1.5800e-08    5.904e-01  
  1.5900e-08    5.927e-01  
  1.6000e-08    5.941e-01  
  1.6100e-08    5.949e-01  
  1.6200e-08    5.957e-01  
  1.6300e-08    5.966e-01  
  1.6400e-08    5.974e-01  
  1.6500e-08    5.980e-01  
  1.6600e-08    5.980e-01  
  1.6700e-08    5.979e-01  
  1.6800e-08    5.979e-01  
  1.6900e-08    5.979e-01  
  1.7000e-08    5.978e-01  
  1.7100e-08    5.978e-01  
  1.7200e-08    5.978e-01  
  1.7300e-08    5.978e-01  
  1.7400e-08    5.977e-01  
  1.7500e-08    5.974e-01  
  1.7600e-08    5.826e-01  
  1.7700e-08    6.642e-01  
  1.7800e-08    6.641e-01  
  1.7900e-08    6.640e-01  
  1.8000e-08    6.638e-01  
  1.8100e-08    6.636e-01  
  1.8200e-08    6.635e-01  
  1.8300e-08    6.633e-01  
  1.8400e-08    6.632e-01  
  1.8500e-08    6.630e-01  
  1.8600e-08    6.628e-01  
  1.8700e-08    6.626e-01  
  1.8800e-08    6.625e-01  
  1.8900e-08    6.623e-01  
  1.9000e-08    6.622e-01  
  1.9100e-08    6.620e-01  
  1.9200e-08    6.619e-01  
  1.9300e-08    6.617e-01  
  1.9400e-08    6.615e-01  
  1.9500e-08    6.614e-01  
  1.9600e-08    6.612e-01  
  1.9700e-08    6.610e-01  
  1.9800e-08    6.609e-01  
  1.9900e-08    6.607e-01  
  2.0000e-08    6.605e-01  
  2.0100e-08    6.604e-01  
  2.0200e-08    6.602e-01  
  2.0300e-08    6.601e-01  
  2.0400e-08    6.599e-01  
  2.0500e-08    6.597e-01  
  2.0600e-08    6.596e-01  
  2.0700e-08    6.594e-01  
  2.0800e-08    6.593e-01  
  2.0900e-08    6.591e-01  
  2.1000e-08    6.589e-01  
  2.1100e-08    6.588e-01  
  2.1200e-08    6.586e-01  
  2.1300e-08    6.584e-01  
  2.1400e-08    6.583e-01  
  2.1500e-08    6.581e-01  
  2.1600e-08    6.580e-01  
  2.1700e-08    6.578e-01  
  2.1800e-08    6.576e-01  
  2.1900e-08    6.575e-01  
  2.2000e-08    6.573e-01  
  2.2100e-08    6.572e-01  
  2.2200e-08    6.570e-01  
  2.2300e-08    6.568e-01  
  2.2400e-08    6.567e-01  
  2.2500e-08    6.565e-01  
  2.2600e-08    8.945e-01  
  2.2700e-08    9.000e-01  
  2.2800e-08    9.000e-01  
  2.2900e-08    9.000e-01  
  2.3000e-08    9.000e-01  
  2.3100e-08    9.000e-01  
  2.3200e-08    9.000e-01  
  2.3300e-08    9.000e-01  
  2.3400e-08    9.000e-01  
  2.3500e-08    9.000e-01  
  2.3600e-08    9.000e-01  
  2.3700e-08    9.000e-01  
  2.3800e-08    9.000e-01  
  2.3900e-08    9.000e-01  
  2.4000e-08    9.000e-01  
  2.4100e-08    9.000e-01  
  2.4200e-08    9.000e-01  
  2.4300e-08    9.000e-01  
  2.4400e-08    9.000e-01  
  2.4500e-08    9.000e-01  
  2.4600e-08    9.000e-01  
  2.4700e-08    9.000e-01  
  2.4800e-08    9.000e-01  
  2.4900e-08    9.000e-01  
  2.5000e-08    9.000e-01  
  2.5100e-08    8.002e-01  
  2.5200e-08    7.986e-01  
  2.5300e-08    7.984e-01  
  2.5400e-08    7.982e-01  
  2.5500e-08    7.981e-01  
  2.5600e-08    7.979e-01  
  2.5700e-08    7.977e-01  
  2.5800e-08    7.975e-01  
  2.5900e-08    7.973e-01  
  2.6000e-08    7.971e-01  
  2.6100e-08    7.969e-01  
  2.6200e-08    7.967e-01  
  2.6300e-08    7.965e-01  
  2.6400e-08    7.963e-01  
  2.6500e-08    7.961e-01  
  2.6600e-08    7.959e-01  
  2.6700e-08    7.957e-01  
  2.6800e-08    7.955e-01  
  2.6900e-08    7.953e-01  
  2.7000e-08    7.951e-01  
  2.7100e-08    7.949e-01  
  2.7200e-08    7.947e-01  
  2.7300e-08    7.945e-01  
  2.7400e-08    7.943e-01  
  2.7500e-08    7.941e-01  
  2.7600e-08    8.133e-01  
  2.7700e-08    2.255e-01  
  2.7800e-08    2.245e-01  
  2.7900e-08    2.250e-01  
  2.8000e-08    2.245e-01  
  2.8100e-08    2.246e-01  
  2.8200e-08    2.248e-01  
  2.8300e-08    2.247e-01  
  2.8400e-08    2.244e-01  
  2.8500e-08    2.242e-01  
  2.8600e-08    2.242e-01  
  2.8700e-08    2.242e-01  
  2.8800e-08    2.243e-01  
  2.8900e-08    2.243e-01  
  2.9000e-08    2.244e-01  
  2.9100e-08    2.243e-01  
  2.9200e-08    2.242e-01  
  2.9300e-08    2.241e-01  
  2.9400e-08    2.240e-01  
  2.9500e-08    2.238e-01  
  2.9600e-08    2.237e-01  
  2.9700e-08    2.236e-01  
  2.9800e-08    2.234e-01  
  2.9900e-08    2.236e-01  
  3.0000e-08    2.239e-01  
  3.0100e-08    2.235e-01  
  3.0200e-08    2.235e-01  
  3.0300e-08    2.234e-01  
  3.0400e-08    2.234e-01  
  3.0500e-08    2.233e-01  
  3.0600e-08    2.233e-01  
  3.0700e-08    2.232e-01  
  3.0800e-08    2.232e-01  
  3.0900e-08    2.231e-01  
  3.1000e-08    2.230e-01  
  3.1100e-08    2.230e-01  
  3.1200e-08    2.229e-01  
  3.1300e-08    2.229e-01  
  3.1400e-08    2.228e-01  
  3.1500e-08    2.228e-01  
  3.1600e-08    2.227e-01  
  3.1700e-08    2.227e-01  
  3.1800e-08    2.226e-01  
  3.1900e-08    2.225e-01  
  3.2000e-08    2.225e-01  
  3.2100e-08    2.224e-01  
  3.2200e-08    2.224e-01  
  3.2300e-08    2.223e-01  
  3.2400e-08    2.223e-01  
  3.2500e-08    2.222e-01  
  3.2600e-08    6.471e-02  
  3.2700e-08    5.423e-02  
  3.2800e-08    5.426e-02  
  3.2900e-08    5.422e-02  
  3.3000e-08    5.421e-02  
  3.3100e-08    5.423e-02  
  3.3200e-08    5.425e-02  
  3.3300e-08    5.427e-02  
  3.3400e-08    5.429e-02  
  3.3500e-08    5.428e-02  
  3.3600e-08    5.428e-02  
  3.3700e-08    5.427e-02  
  3.3800e-08    5.426e-02  
  3.3900e-08    5.425e-02  
  3.4000e-08    5.425e-02  
  3.4100e-08    5.424e-02  
  3.4200e-08    5.423e-02  
  3.4300e-08    5.423e-02  
  3.4400e-08    5.422e-02  
  3.4500e-08    5.421e-02  
  3.4600e-08    5.421e-02  
  3.4700e-08    5.420e-02  
  3.4800e-08    5.422e-02  
  3.4900e-08    5.425e-02  
  3.5000e-08    5.428e-02  
  3.5100e-08    5.427e-02  
  3.5200e-08    5.426e-02  
  3.5300e-08    5.426e-02  
  3.5400e-08    5.425e-02  
  3.5500e-08    5.425e-02  
  3.5600e-08    5.425e-02  
  3.5700e-08    5.425e-02  
  3.5800e-08    5.424e-02  
  3.5900e-08    5.424e-02  
  3.6000e-08    5.424e-02  
  3.6100e-08    5.424e-02  
  3.6200e-08    5.424e-02  
  3.6300e-08    5.424e-02  
  3.6400e-08    5.424e-02  
  3.6500e-08    5.424e-02  
  3.6600e-08    5.424e-02  
  3.6700e-08    5.424e-02  
  3.6800e-08    5.424e-02  
  3.6900e-08    5.424e-02  
  3.7000e-08    5.424e-02  
  3.7100e-08    5.424e-02  
  3.7200e-08    5.424e-02  
  3.7300e-08    5.424e-02  
  3.7400e-08    5.424e-02  
  3.7500e-08    5.424e-02  
  3.7600e-08    5.424e-02  
  3.7700e-08    5.424e-02  
  3.7800e-08    5.424e-02  
  3.7900e-08    5.424e-02  
  3.8000e-08    5.424e-02  
  3.8100e-08    5.424e-02  
  3.8200e-08    5.424e-02  
  3.8300e-08    5.424e-02  
  3.8400e-08    5.424e-02  
  3.8500e-08    5.424e-02  
  3.8600e-08    5.424e-02  
  3.8700e-08    5.424e-02  
  3.8800e-08    5.424e-02  
  3.8900e-08    5.424e-02  
  3.9000e-08    5.424e-02  
  3.9100e-08    5.424e-02  
  3.9200e-08    5.424e-02  
  3.9300e-08    5.424e-02  
  3.9400e-08    5.424e-02  
  3.9500e-08    5.424e-02  
  3.9600e-08    5.424e-02  
  3.9700e-08    5.424e-02  
  3.9800e-08    5.424e-02  
  3.9900e-08    5.424e-02  
  4.0000e-08    5.424e-02  
y
-----------------------------------------------
x

        time    current    
                    vdd    
  0.0000e+00   -9.604e-09  
  1.0000e-10   -9.606e-09  
  2.0000e-10   -9.606e-09  
  3.0000e-10   -9.606e-09  
  4.0000e-10   -9.606e-09  
  5.0000e-10   -9.606e-09  
  6.0000e-10   -9.606e-09  
  7.0000e-10   -9.606e-09  
  8.0000e-10   -9.606e-09  
  9.0000e-10   -9.606e-09  
  1.0000e-09   -9.606e-09  
  1.1000e-09   -9.606e-09  
  1.2000e-09   -9.606e-09  
  1.3000e-09   -9.606e-09  
  1.4000e-09   -9.606e-09  
  1.5000e-09   -9.606e-09  
  1.6000e-09   -9.606e-09  
  1.7000e-09   -9.606e-09  
  1.8000e-09   -9.606e-09  
  1.9000e-09   -9.606e-09  
  2.0000e-09   -9.606e-09  
  2.1000e-09   -9.606e-09  
  2.2000e-09   -9.606e-09  
  2.3000e-09   -9.606e-09  
  2.4000e-09   -9.606e-09  
  2.5000e-09   -9.606e-09  
  2.6000e-09   -9.606e-09  
  2.7000e-09   -9.606e-09  
  2.8000e-09   -9.606e-09  
  2.9000e-09   -9.606e-09  
  3.0000e-09   -9.606e-09  
  3.1000e-09   -9.606e-09  
  3.2000e-09   -9.606e-09  
  3.3000e-09   -9.606e-09  
  3.4000e-09   -9.606e-09  
  3.5000e-09   -9.606e-09  
  3.6000e-09   -9.606e-09  
  3.7000e-09   -9.606e-09  
  3.8000e-09   -9.606e-09  
  3.9000e-09   -9.606e-09  
  4.0000e-09   -9.606e-09  
  4.1000e-09   -9.606e-09  
  4.2000e-09   -9.606e-09  
  4.3000e-09   -9.607e-09  
  4.4000e-09   -9.607e-09  
  4.5000e-09   -9.607e-09  
  4.6000e-09   -9.607e-09  
  4.7000e-09   -9.607e-09  
  4.8000e-09   -9.607e-09  
  4.9000e-09   -9.607e-09  
  5.0000e-09   -9.607e-09  
  5.1000e-09   -3.855e-09  
  5.2000e-09   -8.923e-09  
  5.3000e-09   -9.288e-09  
  5.4000e-09   -9.443e-09  
  5.5000e-09   -9.503e-09  
  5.6000e-09   -9.557e-09  
  5.7000e-09   -9.558e-09  
  5.8000e-09   -9.559e-09  
  5.9000e-09   -9.560e-09  
  6.0000e-09   -9.561e-09  
  6.1000e-09   -9.560e-09  
  6.2000e-09   -9.558e-09  
  6.3000e-09   -9.557e-09  
  6.4000e-09   -9.555e-09  
  6.5000e-09   -9.554e-09  
  6.6000e-09   -9.552e-09  
  6.7000e-09   -9.551e-09  
  6.8000e-09   -9.552e-09  
  6.9000e-09   -9.552e-09  
  7.0000e-09   -9.552e-09  
  7.1000e-09   -9.553e-09  
  7.2000e-09   -9.553e-09  
  7.3000e-09   -9.553e-09  
  7.4000e-09   -9.554e-09  
  7.5000e-09   -9.554e-09  
  7.6000e-09   -7.135e-09  
  7.7000e-09   -1.063e-08  
  7.8000e-09   -1.016e-08  
  7.9000e-09   -9.962e-09  
  8.0000e-09   -9.853e-09  
  8.1000e-09   -9.800e-09  
  8.2000e-09   -9.747e-09  
  8.3000e-09   -9.722e-09  
  8.4000e-09   -9.708e-09  
  8.5000e-09   -9.694e-09  
  8.6000e-09   -9.680e-09  
  8.7000e-09   -9.666e-09  
  8.8000e-09   -9.662e-09  
  8.9000e-09   -9.663e-09  
  9.0000e-09   -9.663e-09  
  9.1000e-09   -9.663e-09  
  9.2000e-09   -9.663e-09  
  9.3000e-09   -9.664e-09  
  9.4000e-09   -9.664e-09  
  9.5000e-09   -9.664e-09  
  9.6000e-09   -9.664e-09  
  9.7000e-09   -9.665e-09  
  9.8000e-09   -9.664e-09  
  9.9000e-09   -9.664e-09  
  1.0000e-08   -9.663e-09  
  1.0100e-08   -2.760e-08  
  1.0200e-08   -1.187e-08  
  1.0300e-08   -1.061e-08  
  1.0400e-08   -1.006e-08  
  1.0500e-08   -9.869e-09  
  1.0600e-08   -9.763e-09  
  1.0700e-08   -9.713e-09  
  1.0800e-08   -9.663e-09  
  1.0900e-08   -9.642e-09  
  1.1000e-08   -9.640e-09  
  1.1100e-08   -9.637e-09  
  1.1200e-08   -9.635e-09  
  1.1300e-08   -9.633e-09  
  1.1400e-08   -9.633e-09  
  1.1500e-08   -9.633e-09  
  1.1600e-08   -9.633e-09  
  1.1700e-08   -9.633e-09  
  1.1800e-08   -9.633e-09  
  1.1900e-08   -9.633e-09  
  1.2000e-08   -9.633e-09  
  1.2100e-08   -9.633e-09  
  1.2200e-08   -9.634e-09  
  1.2300e-08   -9.636e-09  
  1.2400e-08   -9.637e-09  
  1.2500e-08   -9.638e-09  
  1.2600e-08   -1.078e-08  
  1.2700e-08   -9.916e-09  
  1.2800e-08   -9.832e-09  
  1.2900e-08   -9.792e-09  
  1.3000e-08   -9.769e-09  
  1.3100e-08   -9.751e-09  
  1.3200e-08   -9.749e-09  
  1.3300e-08   -9.746e-09  
  1.3400e-08   -9.743e-09  
  1.3500e-08   -9.740e-09  
  1.3600e-08   -9.737e-09  
  1.3700e-08   -9.735e-09  
  1.3800e-08   -9.732e-09  
  1.3900e-08   -9.731e-09  
  1.4000e-08   -9.730e-09  
  1.4100e-08   -9.729e-09  
  1.4200e-08   -9.728e-09  
  1.4300e-08   -9.727e-09  
  1.4400e-08   -9.726e-09  
  1.4500e-08   -9.725e-09  
  1.4600e-08   -9.723e-09  
  1.4700e-08   -9.722e-09  
  1.4800e-08   -9.721e-09  
  1.4900e-08   -9.720e-09  
  1.5000e-08   -9.719e-09  
  1.5100e-08    1.665e-09  
  1.5200e-08   -8.726e-09  
  1.5300e-08   -9.152e-09  
  1.5400e-08   -9.428e-09  
  1.5500e-08   -9.516e-09  
  1.5600e-08   -9.575e-09  
  1.5700e-08   -9.578e-09  
  1.5800e-08   -9.581e-09  
  1.5900e-08   -9.584e-09  
  1.6000e-08   -9.579e-09  
  1.6100e-08   -9.570e-09  
  1.6200e-08   -9.560e-09  
  1.6300e-08   -9.551e-09  
  1.6400e-08   -9.542e-09  
  1.6500e-08   -9.535e-09  
  1.6600e-08   -9.538e-09  
  1.6700e-08   -9.540e-09  
  1.6800e-08   -9.543e-09  
  1.6900e-08   -9.545e-09  
  1.7000e-08   -9.548e-09  
  1.7100e-08   -9.550e-09  
  1.7200e-08   -9.552e-09  
  1.7300e-08   -9.555e-09  
  1.7400e-08   -9.552e-09  
  1.7500e-08   -9.535e-09  
  1.7600e-08   -4.073e-08  
  1.7700e-08   -2.017e-07  
  1.7800e-08   -2.016e-07  
  1.7900e-08   -2.031e-07  
  1.8000e-08   -2.020e-07  
  1.8100e-08   -2.016e-07  
  1.8200e-08   -2.024e-07  
  1.8300e-08   -2.032e-07  
  1.8400e-08   -2.027e-07  
  1.8500e-08   -2.022e-07  
  1.8600e-08   -2.016e-07  
  1.8700e-08   -2.013e-07  
  1.8800e-08   -2.016e-07  
  1.8900e-08   -2.020e-07  
  1.9000e-08   -2.023e-07  
  1.9100e-08   -2.027e-07  
  1.9200e-08   -2.030e-07  
  1.9300e-08   -2.032e-07  
  1.9400e-08   -2.029e-07  
  1.9500e-08   -2.027e-07  
  1.9600e-08   -2.024e-07  
  1.9700e-08   -2.021e-07  
  1.9800e-08   -2.018e-07  
  1.9900e-08   -2.015e-07  
  2.0000e-08   -2.012e-07  
  2.0100e-08   -3.800e-07  
  2.0200e-08   -3.390e-07  
  2.0300e-08   -3.389e-07  
  2.0400e-08   -3.389e-07  
  2.0500e-08   -3.390e-07  
  2.0600e-08   -3.390e-07  
  2.0700e-08   -3.390e-07  
  2.0800e-08   -3.389e-07  
  2.0900e-08   -3.389e-07  
  2.1000e-08   -3.389e-07  
  2.1100e-08   -3.388e-07  
  2.1200e-08   -3.389e-07  
  2.1300e-08   -3.389e-07  
  2.1400e-08   -3.389e-07  
  2.1500e-08   -3.389e-07  
  2.1600e-08   -3.389e-07  
  2.1700e-08   -3.389e-07  
  2.1800e-08   -3.389e-07  
  2.1900e-08   -3.389e-07  
  2.2000e-08   -3.389e-07  
  2.2100e-08   -3.389e-07  
  2.2200e-08   -3.390e-07  
  2.2300e-08   -3.390e-07  
  2.2400e-08   -3.390e-07  
  2.2500e-08   -3.390e-07  
  2.2600e-08   -3.537e-07  
  2.2700e-08   -3.389e-07  
  2.2800e-08   -3.389e-07  
  2.2900e-08   -3.389e-07  
  2.3000e-08   -3.389e-07  
  2.3100e-08   -3.389e-07  
  2.3200e-08   -3.389e-07  
  2.3300e-08   -3.389e-07  
  2.3400e-08   -3.389e-07  
  2.3500e-08   -3.389e-07  
  2.3600e-08   -3.389e-07  
  2.3700e-08   -3.389e-07  
  2.3800e-08   -3.389e-07  
  2.3900e-08   -3.389e-07  
  2.4000e-08   -3.390e-07  
  2.4100e-08   -3.389e-07  
  2.4200e-08   -3.389e-07  
  2.4300e-08   -3.389e-07  
  2.4400e-08   -3.389e-07  
  2.4500e-08   -3.389e-07  
  2.4600e-08   -3.389e-07  
  2.4700e-08   -3.389e-07  
  2.4800e-08   -3.389e-07  
  2.4900e-08   -3.389e-07  
  2.5000e-08   -3.389e-07  
  2.5100e-08   -3.329e-07  
  2.5200e-08   -3.390e-07  
  2.5300e-08   -3.389e-07  
  2.5400e-08   -3.389e-07  
  2.5500e-08   -3.389e-07  
  2.5600e-08   -3.389e-07  
  2.5700e-08   -3.389e-07  
  2.5800e-08   -3.389e-07  
  2.5900e-08   -3.389e-07  
  2.6000e-08   -3.389e-07  
  2.6100e-08   -3.389e-07  
  2.6200e-08   -3.389e-07  
  2.6300e-08   -3.389e-07  
  2.6400e-08   -3.389e-07  
  2.6500e-08   -3.389e-07  
  2.6600e-08   -3.389e-07  
  2.6700e-08   -3.389e-07  
  2.6800e-08   -3.389e-07  
  2.6900e-08   -3.389e-07  
  2.7000e-08   -3.389e-07  
  2.7100e-08   -3.389e-07  
  2.7200e-08   -3.389e-07  
  2.7300e-08   -3.389e-07  
  2.7400e-08   -3.389e-07  
  2.7500e-08   -3.390e-07  
  2.7600e-08   -5.915e-07  
  2.7700e-08   -6.162e-07  
  2.7800e-08   -6.182e-07  
  2.7900e-08   -6.148e-07  
  2.8000e-08   -6.172e-07  
  2.8100e-08   -6.162e-07  
  2.8200e-08   -6.144e-07  
  2.8300e-08   -6.150e-07  
  2.8400e-08   -6.161e-07  
  2.8500e-08   -6.171e-07  
  2.8600e-08   -6.170e-07  
  2.8700e-08   -6.163e-07  
  2.8800e-08   -6.156e-07  
  2.8900e-08   -6.149e-07  
  2.9000e-08   -6.143e-07  
  2.9100e-08   -6.144e-07  
  2.9200e-08   -6.148e-07  
  2.9300e-08   -6.152e-07  
  2.9400e-08   -6.156e-07  
  2.9500e-08   -6.160e-07  
  2.9600e-08   -6.164e-07  
  2.9700e-08   -6.168e-07  
  2.9800e-08   -6.172e-07  
  2.9900e-08   -6.162e-07  
  3.0000e-08   -6.142e-07  
  3.0100e-08   -4.138e-07  
  3.0200e-08   -4.045e-07  
  3.0300e-08   -4.042e-07  
  3.0400e-08   -4.043e-07  
  3.0500e-08   -4.044e-07  
  3.0600e-08   -4.045e-07  
  3.0700e-08   -4.044e-07  
  3.0800e-08   -4.044e-07  
  3.0900e-08   -4.043e-07  
  3.1000e-08   -4.043e-07  
  3.1100e-08   -4.042e-07  
  3.1200e-08   -4.042e-07  
  3.1300e-08   -4.041e-07  
  3.1400e-08   -4.041e-07  
  3.1500e-08   -4.041e-07  
  3.1600e-08   -4.042e-07  
  3.1700e-08   -4.042e-07  
  3.1800e-08   -4.042e-07  
  3.1900e-08   -4.043e-07  
  3.2000e-08   -4.043e-07  
  3.2100e-08   -4.043e-07  
  3.2200e-08   -4.044e-07  
  3.2300e-08   -4.044e-07  
  3.2400e-08   -4.044e-07  
  3.2500e-08   -4.045e-07  
  3.2600e-08   -3.893e-07  
  3.2700e-08   -4.043e-07  
  3.2800e-08   -4.042e-07  
  3.2900e-08   -4.044e-07  
  3.3000e-08   -4.045e-07  
  3.3100e-08   -4.044e-07  
  3.3200e-08   -4.043e-07  
  3.3300e-08   -4.042e-07  
  3.3400e-08   -4.041e-07  
  3.3500e-08   -4.041e-07  
  3.3600e-08   -4.042e-07  
  3.3700e-08   -4.042e-07  
  3.3800e-08   -4.042e-07  
  3.3900e-08   -4.042e-07  
  3.4000e-08   -4.043e-07  
  3.4100e-08   -4.043e-07  
  3.4200e-08   -4.043e-07  
  3.4300e-08   -4.044e-07  
  3.4400e-08   -4.044e-07  
  3.4500e-08   -4.044e-07  
  3.4600e-08   -4.045e-07  
  3.4700e-08   -4.045e-07  
  3.4800e-08   -4.044e-07  
  3.4900e-08   -4.042e-07  
  3.5000e-08   -4.041e-07  
  3.5100e-08   -4.041e-07  
  3.5200e-08   -4.042e-07  
  3.5300e-08   -4.042e-07  
  3.5400e-08   -4.043e-07  
  3.5500e-08   -4.043e-07  
  3.5600e-08   -4.043e-07  
  3.5700e-08   -4.043e-07  
  3.5800e-08   -4.043e-07  
  3.5900e-08   -4.043e-07  
  3.6000e-08   -4.043e-07  
  3.6100e-08   -4.043e-07  
  3.6200e-08   -4.043e-07  
  3.6300e-08   -4.043e-07  
  3.6400e-08   -4.043e-07  
  3.6500e-08   -4.043e-07  
  3.6600e-08   -4.043e-07  
  3.6700e-08   -4.043e-07  
  3.6800e-08   -4.043e-07  
  3.6900e-08   -4.043e-07  
  3.7000e-08   -4.043e-07  
  3.7100e-08   -4.043e-07  
  3.7200e-08   -4.043e-07  
  3.7300e-08   -4.043e-07  
  3.7400e-08   -4.043e-07  
  3.7500e-08   -4.043e-07  
  3.7600e-08   -4.043e-07  
  3.7700e-08   -4.043e-07  
  3.7800e-08   -4.043e-07  
  3.7900e-08   -4.043e-07  
  3.8000e-08   -4.043e-07  
  3.8100e-08   -4.043e-07  
  3.8200e-08   -4.043e-07  
  3.8300e-08   -4.043e-07  
  3.8400e-08   -4.043e-07  
  3.8500e-08   -4.043e-07  
  3.8600e-08   -4.043e-07  
  3.8700e-08   -4.043e-07  
  3.8800e-08   -4.043e-07  
  3.8900e-08   -4.043e-07  
  3.9000e-08   -4.043e-07  
  3.9100e-08   -4.043e-07  
  3.9200e-08   -4.043e-07  
  3.9300e-08   -4.043e-07  
  3.9400e-08   -4.043e-07  
  3.9500e-08   -4.043e-07  
  3.9600e-08   -4.043e-07  
  3.9700e-08   -4.043e-07  
  3.9800e-08   -4.043e-07  
  3.9900e-08   -4.043e-07  
  4.0000e-08   -4.043e-07  
y
-----------------------------------------------

          ***** job concluded
1****** HSPICE -- H-2013.03 64-BIT (Mar  7 2013) win64 ******                   
 ******  
 'inverter'

  ******  job statistics summary tnom=  25.000 temp=  25.000 *****

  ******  HSPICE Threads Information  ******

  Command Line Threads Count :     1
  Available CPU Count        :     4
  Actual Threads Count       :     1


  ******  Circuit Statistics  ******
  # nodes       =     519 # elements   =    1176
  # resistors   =     216 # capacitors =     522 # inductors   =       0
  # mutual_inds =       0 # vccs       =     144 # vcvs        =     252
  # cccs        =       0 # ccvs       =       0 # volt_srcs   =      42
  # curr_srcs   =       0 # diodes     =       0 # bjts        =       0
  # jfets       =       0 # mosfets    =       0 # U elements  =       0
  # T elements  =       0 # W elements =       0 # B elements  =       0
  # S elements  =       0 # P elements =       0 # va device   =       0
  # vector_srcs =       0 # N elements =       0


  ******  Runtime Statistics (seconds)  ******

  analysis           time    # points   tot. iter  conv.iter
  op point          14.46           1         526
  transient         16.92         401         883         242 rev=        21
  readin             0.09
  errchk             0.27
  setup              0.05
  output             0.00


           peak memory used         52.89 megabytes
           total cpu time           31.80 seconds
           total elapsed time       31.87 seconds
           job started at     21:45:32 02/26/2018
           job ended   at     21:46:03 02/26/2018


  lic: Release hspice token(s) 
 lic: total license checkout elapse time:        0.02(s)
