 ****** HSPICE -- H-2013.03 64-BIT (Mar  7 2013) win64 ******                   
  Copyright (C) 2013 Synopsys, Inc. All Rights Reserved.                        
  Unpublished-rights reserved under US copyright laws.
  This program is protected by law and is subject to the
  terms and conditions of the license agreement from Synopsys.
  Use of this program is your acceptance to be bound by the
  license agreement. HSPICE is the trademark of Synopsys, Inc.
  Input File: sram32read.sp                                                     
  Command line options: -i sram32read.sp -o sram32read.lis
  lic:  
  lic: FLEXlm: v10.9.8 
  lic: USER:   Dell                 HOSTNAME: DESKTOP-O3DHVG1 
  lic: HOSTID: "28f10e041fd4 a0d37a293ca4 a0d37a293ca5" PID:      5824 
  lic: Using FLEXlm license file: 
  lic: C:\synopsys\Hspice_H-2013.03\lic.dat\lic.lic 
  lic: Checkout 1 hspice 
  lic: License/Maintenance for hspice will expire on 31-dec-2019/2019.12 
  lic: NODE LOCKED license on hostid "28f10e041fd4 a0d37a293ca4 a0d37a293ca5" 
  lic:   
 Init: read install configuration file: C:\synopsys\Hspice_H-2013.03\meta.cfg
 scientific notation:
 a=10**-18  f=10**-15  p=10**-12  n=10**-9  u=10**-6
 m=10**-3   k=10**3    x=10**6    g=10**9 
1****** HSPICE -- H-2013.03 64-BIT (Mar  7 2013) win64 ******                   
 ******  
 'inverter'

  ******  circuit name directory
 circuit number to circuit name directory
   number circuitname                     definition         multiplier
        0 main circuit


 circuit parameter definitions
  parameter          =  value 

     0:temp                                                    = 2.700e+01      
     0:m_cnt                                                   = 1.000e+00      
     0:wg                                                      = 4.000e-09      
     0:cb                                                      = 4.000e-11      
     0:lg                                                      = 3.200e-08      
     0:lgef                                                    = 1.000e-07      
     0:vfn                                                     = 0.000e+00      
     0:vfp                                                     = 0.000e+00      
     0:m                                                       = 0.000e+00      
     0:n                                                       = 1.900e+01      
     0:hox                                                     = 4.000e-09      
     1:tox                                                     = 4.000e-09      
     1:csub                                                    = 4.000e-11      
     1:pitch                                                   = 2.000e-08      
     1:n1                                                      = 0.000e+00      
     1:n2                                                      = 1.900e+01      
     1:vfbp                                                    = 0.000e+00      
     1:kgate                                                   = 1.600e+01      
     1:dout                                                    = 0.000e+00      
     1:sout                                                    = 0.000e+00      
     1:tubes                                                   = 1.000e+00      
     1:lch                                                     = 3.200e-08      
     1:lgeff                                                   = 1.000e-07      
     1:lss                                                     = 3.200e-08      
     1:ldd                                                     = 3.200e-08      
     2:tox                                                     = 4.000e-09      
     2:csub                                                    = 4.000e-11      
     2:pitch                                                   = 2.000e-08      
     2:n1                                                      = 0.000e+00      
     2:n2                                                      = 1.000e+01      
     2:vfbp                                                    = 0.000e+00      
     2:kgate                                                   = 1.600e+01      
     2:dout                                                    = 0.000e+00      
     2:sout                                                    = 0.000e+00      
     2:tubes                                                   = 1.000e+00      
     2:lch                                                     = 3.200e-08      
     2:lgeff                                                   = 1.000e-07      
     2:lss                                                     = 3.200e-08      
     2:ldd                                                     = 3.200e-08      
     3:tox                                                     = 4.000e-09      
     3:csub                                                    = 4.000e-11      
     3:pitch                                                   = 2.000e-08      
     3:n1                                                      = 0.000e+00      
     3:n2                                                      = 1.300e+01      
     3:vfbp                                                    = 0.000e+00      
     3:kgate                                                   = 1.600e+01      
     3:dout                                                    = 0.000e+00      
     3:sout                                                    = 0.000e+00      
     3:tubes                                                   = 1.000e+00      
     3:lch                                                     = 3.200e-08      
     3:lgeff                                                   = 1.000e-07      
     3:lss                                                     = 3.200e-08      
     3:ldd                                                     = 3.200e-08      
     4:tox                                                     = 4.000e-09      
     4:csub                                                    = 4.000e-11      
     4:vfbn                                                    = 0.000e+00      
     4:pitch                                                   = 2.000e-08      
     4:n1                                                      = 0.000e+00      
     4:n2                                                      = 1.300e+01      
     4:kgate                                                   = 1.600e+01      
     4:dout                                                    = 0.000e+00      
     4:sout                                                    = 0.000e+00      
     4:tubes                                                   = 1.000e+00      
     4:lch                                                     = 3.200e-08      
     4:lgeff                                                   = 1.000e-07      
     4:lss                                                     = 3.200e-08      
     4:ldd                                                     = 3.200e-08      
     5:tox                                                     = 4.000e-09      
     5:csub                                                    = 4.000e-11      
     5:vfbn                                                    = 0.000e+00      
     5:pitch                                                   = 2.000e-08      
     5:n1                                                      = 0.000e+00      
     5:n2                                                      = 1.900e+01      
     5:kgate                                                   = 1.600e+01      
     5:dout                                                    = 0.000e+00      
     5:sout                                                    = 0.000e+00      
     5:tubes                                                   = 1.000e+00      
     5:lch                                                     = 3.200e-08      
     5:lgeff                                                   = 1.000e-07      
     5:lss                                                     = 3.200e-08      
     5:ldd                                                     = 3.200e-08      
     6:tox                                                     = 4.000e-09      
     6:csub                                                    = 4.000e-11      
     6:vfbn                                                    = 0.000e+00      
     6:pitch                                                   = 2.000e-08      
     6:n1                                                      = 0.000e+00      
     6:n2                                                      = 1.000e+01      
     6:kgate                                                   = 1.600e+01      
     6:dout                                                    = 0.000e+00      
     6:sout                                                    = 0.000e+00      
     6:tubes                                                   = 1.000e+00      
     6:lch                                                     = 3.200e-08      
     6:lgeff                                                   = 1.000e-07      
     6:lss                                                     = 3.200e-08      
     6:ldd                                                     = 3.200e-08      




 constants  - tnom         kt           vt           gapsi        ni
            2.9815e+02   4.1163e-21   2.5692e-02   1.1156e+00   1.2565e+16 
  **info** (sram32read.sp:132) DC voltage reset to initial transient source value              in source        0:vrwl                new dc=  0.0000D+00

 **warning**  associated with encrypted block(s) were suppressed due to encrypted content

1****** HSPICE -- H-2013.03 64-BIT (Mar  7 2013) win64 ******                   
 ******  
 'inverter'

  ******  circuit element summary tnom=  25.000 temp=  25.000 *****


 **** resistors

  
  
                             
 element name        0:r1    
 node1               0:rbll  
 node2               0:0     
 model                       
 res eff           1.000e+02 
 tc1                 0.      
 tc2                 0.      
 scale             1.000e+00 
 m                 1.000e+00 
 ac                1.000e+02 
 temp              2.500e+01 
 l                   0.      
 w                   0.      
 cap                 0.      
 noise            1.000e+00  


 **** capacitors
  
  
                             
 element name        0:cbl   
 node1               0:rbl   
 node2               0:rbll  
 model                       
 cap eff           1.000e-12 
 tc1               0.000e+00 
 tc2               0.000e+00 
 scale             1.000e+00 
 ic               -1.235e-29 
 m                 1.000e+00 
 w                 0.000e+00 
 l                 0.000e+00 
 temp              2.500e+01 


 **** independent sources

     name         node1        node2      dc volt    ac mag    ac phase    type
  vdd  vdd               0                  9.000e-01  0.000e+00  0.000e+00 dc   
  vrwl  rwl               0                  0.000e+00  0.000e+00  0.000e+00 pwl  
                time        value

                 0.000e+00    0.000e+00
                 1.250e-08    0.000e+00
                 1.260e-08    9.000e-01
                 1.500e-08    9.000e-01
                 1.510e-08    0.000e+00
                 2.250e-08    0.000e+00
                 2.260e-08    9.000e-01
                 2.500e-08    9.000e-01
                 2.510e-08    0.000e+00
                 3.250e-08    0.000e+00
                 3.260e-08    9.000e-01
                 3.500e-08    9.000e-01


  vrwlb  rwlb              0                  9.000e-01  0.000e+00  0.000e+00 pwl  
                time        value

                 0.000e+00    9.000e-01
                 1.250e-08    9.000e-01
                 1.260e-08    0.000e+00
                 1.500e-08    0.000e+00
                 1.510e-08    9.000e-01
                 2.250e-08    9.000e-01
                 2.260e-08    0.000e+00
                 2.500e-08    0.000e+00
                 2.510e-08    9.000e-01
                 3.250e-08    9.000e-01
                 3.260e-08    0.000e+00
                 3.500e-08    0.000e+00


  vwbl  wbl               0                  0.000e+00  0.000e+00  0.000e+00 pwl  
                time        value

                 0.000e+00    0.000e+00
                 5.000e-09    0.000e+00
                 5.100e-09    4.500e-01
                 1.000e-08    4.500e-01
                 1.010e-08    0.000e+00
                 1.500e-08    0.000e+00
                 1.510e-08    9.000e-01
                 2.000e-08    9.000e-01
                 2.010e-08    0.000e+00
                 3.000e-08    0.000e+00
                 4.000e-08    0.000e+00


  vwwl  wwl               0                  0.000e+00  0.000e+00  0.000e+00 pwl  
                time        value

                 0.000e+00    0.000e+00
                 7.500e-09    0.000e+00
                 7.600e-09    9.000e-01
                 1.000e-08    9.000e-01
                 1.010e-08    0.000e+00
                 1.750e-08    0.000e+00
                 1.760e-08    9.000e-01
                 2.000e-08    9.000e-01
                 2.010e-08    0.000e+00
                 2.750e-08    0.000e+00
                 2.760e-08    9.000e-01
                 3.000e-08    9.000e-01
                 3.010e-08    0.000e+00
                 4.000e-08    0.000e+00


  vwwlb  wwlb              0                  9.000e-01  0.000e+00  0.000e+00 pwl  
                time        value

                 0.000e+00    9.000e-01
                 7.500e-09    9.000e-01
                 7.600e-09    0.000e+00
                 1.000e-08    0.000e+00
                 1.010e-08    9.000e-01
                 1.750e-08    9.000e-01
                 1.760e-08    0.000e+00
                 2.000e-08    0.000e+00
                 2.010e-08    9.000e-01
                 2.750e-08    9.000e-01
                 2.760e-08    0.000e+00
                 3.000e-08    0.000e+00
                 3.010e-08    9.000e-01
                 4.000e-08    9.000e-01




 **** subcircuit calls
    name        subcircuit         external nodes


         0:xcnt7    pcnfet          0:vdd         0:q           0:n2      
                               0:n2      


         0:xcnt8    pcnfet          0:vdd         0:q           0:qb      
                               0:qb      


         0:xcnt6    pcnfet          0:qb          0:qb          0:n2      
                               0:n2      


         0:xcnt5    ncnfet          0:qb          0:qb          0:n1      
                               0:n1      


         0:xcnt3    ncnfet          0:n1          0:q           0:0       
                               0:0       


         0:xcnt4    ncnfet          0:qb          0:q           0:0       
                               0:0       


         0:xcnt14   pcnfet          0:vdd         0:qb          0:q       
                               0:q       


         0:xcnt13   pcnfet          0:vdd         0:qb          0:n4      
                               0:n4      


         0:xcnt12   pcnfet          0:q           0:q           0:n4      
                               0:n4      


         0:xcnt11   ncnfet          0:q           0:q           0:n3      
                               0:n3      


         0:xcnt10   ncnfet          0:q           0:qb          0:0       
                               0:0       


         0:xcnt9    ncnfet          0:n3          0:qb          0:0       
                               0:0       


         0:xcnt2    pcnfet          0:q           0:wwlb        0:wbl     
                               0:wbl     


         0:xcnt1    ncnfet          0:wbl         0:wwl         0:q       
                               0:q       


         0:xcnt16   pcnfet          0:vdd         0:qb          0:n5      
                               0:n5      


         0:xcnt15   ncnfet          0:n5          0:qb          0:0       
                               0:0       


         0:xcnt18   pcnfet          0:rbl         0:rwlb        0:n5      
                               0:n5      


         0:xcnt17   ncnfet          0:n5          0:rwl         0:rbl     
                               0:rbl     


  
1****** HSPICE -- H-2013.03 64-BIT (Mar  7 2013) win64 ******                   
 ******  
 'inverter'

  ******  element node table
                                                                                      
 0                r1               vdd              vrwl             vrwlb            
                  vwbl             vwwl             vwwlb                             
 rbl              cbl                                                                 
 rbll             r1               cbl                                                
 rwl              vrwl                                                                
 rwlb             vrwlb                                                               
 vdd              vdd                                                                 
 wbl              vwbl                                                                
 wwl              vwwl                                                                
 wwlb             vwwlb                                                               
  **warning** PIVOT option setting is simplified, pivot = 13 is obsolete,
              automatically switch to pivot = 1.
 *****************************************************************
 ******  option summary
 ******
 runlvl  = 3         bypass  = 2         
  Opening plot unit= 79
 file=sram32read.pa0

1****** HSPICE -- H-2013.03 64-BIT (Mar  7 2013) win64 ******                   
 ******  
 'inverter'

  ******  operating point information tnom=  25.000 temp=  25.000 *****
 ***** operating point status is voltage   simulation time is   0.000e+00
     node    =voltage       node    =voltage       node    =voltage

 + 0:n1      = 1.083e-02  0:n2      = 8.891e-01  0:n3      = 1.081e-02
 + 0:n4      = 8.891e-01  0:n5      = 4.649e-03  0:q       = 4.496e-01
 + 0:qb      = 4.497e-01  0:rbl     = 4.593e-03  0:rbll    = 0.000e+00
 + 0:rwl     = 0.000e+00  0:rwlb    = 9.000e-01  0:vdd     = 9.000e-01
 + 0:wbl     = 0.000e+00  0:wwl     = 0.000e+00  0:wwlb    = 9.000e-01

 ******  
 'inverter'

  ******  transient analysis tnom=  25.000 temp=  25.000 *****
x

        time    voltage      voltage      voltage      voltage    
                     q           qb           wbl          wwl    
  0.0000e+00    4.496e-01    4.497e-01    0.000e+00    0.000e+00  
  1.0000e-10    4.496e-01    4.497e-01    0.000e+00    0.000e+00  
  2.0000e-10    4.496e-01    4.497e-01    0.000e+00    0.000e+00  
  3.0000e-10    4.496e-01    4.497e-01    0.000e+00    0.000e+00  
  4.0000e-10    4.496e-01    4.497e-01    0.000e+00    0.000e+00  
  5.0000e-10    4.496e-01    4.497e-01    0.000e+00    0.000e+00  
  6.0000e-10    4.496e-01    4.497e-01    0.000e+00    0.000e+00  
  7.0000e-10    4.496e-01    4.497e-01    0.000e+00    0.000e+00  
  8.0000e-10    4.496e-01    4.497e-01    0.000e+00    0.000e+00  
  9.0000e-10    4.496e-01    4.497e-01    0.000e+00    0.000e+00  
  1.0000e-09    4.496e-01    4.497e-01    0.000e+00    0.000e+00  
  1.1000e-09    4.496e-01    4.497e-01    0.000e+00    0.000e+00  
  1.2000e-09    4.496e-01    4.497e-01    0.000e+00    0.000e+00  
  1.3000e-09    4.496e-01    4.497e-01    0.000e+00    0.000e+00  
  1.4000e-09    4.496e-01    4.497e-01    0.000e+00    0.000e+00  
  1.5000e-09    4.496e-01    4.497e-01    0.000e+00    0.000e+00  
  1.6000e-09    4.496e-01    4.497e-01    0.000e+00    0.000e+00  
  1.7000e-09    4.496e-01    4.497e-01    0.000e+00    0.000e+00  
  1.8000e-09    4.496e-01    4.497e-01    0.000e+00    0.000e+00  
  1.9000e-09    4.496e-01    4.497e-01    0.000e+00    0.000e+00  
  2.0000e-09    4.496e-01    4.497e-01    0.000e+00    0.000e+00  
  2.1000e-09    4.496e-01    4.497e-01    0.000e+00    0.000e+00  
  2.2000e-09    4.496e-01    4.497e-01    0.000e+00    0.000e+00  
  2.3000e-09    4.496e-01    4.497e-01    0.000e+00    0.000e+00  
  2.4000e-09    4.496e-01    4.497e-01    0.000e+00    0.000e+00  
  2.5000e-09    4.496e-01    4.497e-01    0.000e+00    0.000e+00  
  2.6000e-09    4.496e-01    4.497e-01    0.000e+00    0.000e+00  
  2.7000e-09    4.496e-01    4.497e-01    0.000e+00    0.000e+00  
  2.8000e-09    4.496e-01    4.497e-01    0.000e+00    0.000e+00  
  2.9000e-09    4.496e-01    4.497e-01    0.000e+00    0.000e+00  
  3.0000e-09    4.496e-01    4.497e-01    0.000e+00    0.000e+00  
  3.1000e-09    4.496e-01    4.497e-01    0.000e+00    0.000e+00  
  3.2000e-09    4.496e-01    4.497e-01    0.000e+00    0.000e+00  
  3.3000e-09    4.496e-01    4.497e-01    0.000e+00    0.000e+00  
  3.4000e-09    4.496e-01    4.497e-01    0.000e+00    0.000e+00  
  3.5000e-09    4.496e-01    4.497e-01    0.000e+00    0.000e+00  
  3.6000e-09    4.496e-01    4.497e-01    0.000e+00    0.000e+00  
  3.7000e-09    4.496e-01    4.497e-01    0.000e+00    0.000e+00  
  3.8000e-09    4.496e-01    4.497e-01    0.000e+00    0.000e+00  
  3.9000e-09    4.496e-01    4.497e-01    0.000e+00    0.000e+00  
  4.0000e-09    4.496e-01    4.497e-01    0.000e+00    0.000e+00  
  4.1000e-09    4.496e-01    4.497e-01    0.000e+00    0.000e+00  
  4.2000e-09    4.496e-01    4.497e-01    0.000e+00    0.000e+00  
  4.3000e-09    4.496e-01    4.497e-01    0.000e+00    0.000e+00  
  4.4000e-09    4.496e-01    4.497e-01    0.000e+00    0.000e+00  
  4.5000e-09    4.496e-01    4.497e-01    0.000e+00    0.000e+00  
  4.6000e-09    4.496e-01    4.497e-01    0.000e+00    0.000e+00  
  4.7000e-09    4.496e-01    4.497e-01    0.000e+00    0.000e+00  
  4.8000e-09    4.496e-01    4.497e-01    0.000e+00    0.000e+00  
  4.9000e-09    4.496e-01    4.497e-01    0.000e+00    0.000e+00  
  5.0000e-09    4.496e-01    4.497e-01    0.000e+00    0.000e+00  
  5.1000e-09    4.511e-01    4.496e-01    4.500e-01    0.000e+00  
  5.2000e-09    4.497e-01    4.497e-01    4.500e-01    0.000e+00  
  5.3000e-09    4.497e-01    4.497e-01    4.500e-01    0.000e+00  
  5.4000e-09    4.497e-01    4.497e-01    4.500e-01    0.000e+00  
  5.5000e-09    4.497e-01    4.497e-01    4.500e-01    0.000e+00  
  5.6000e-09    4.497e-01    4.497e-01    4.500e-01    0.000e+00  
  5.7000e-09    4.497e-01    4.497e-01    4.500e-01    0.000e+00  
  5.8000e-09    4.497e-01    4.497e-01    4.500e-01    0.000e+00  
  5.9000e-09    4.497e-01    4.497e-01    4.500e-01    0.000e+00  
  6.0000e-09    4.497e-01    4.497e-01    4.500e-01    0.000e+00  
  6.1000e-09    4.497e-01    4.497e-01    4.500e-01    0.000e+00  
  6.2000e-09    4.497e-01    4.497e-01    4.500e-01    0.000e+00  
  6.3000e-09    4.497e-01    4.497e-01    4.500e-01    0.000e+00  
  6.4000e-09    4.497e-01    4.497e-01    4.500e-01    0.000e+00  
  6.5000e-09    4.497e-01    4.497e-01    4.500e-01    0.000e+00  
  6.6000e-09    4.497e-01    4.497e-01    4.500e-01    0.000e+00  
  6.7000e-09    4.497e-01    4.497e-01    4.500e-01    0.000e+00  
  6.8000e-09    4.497e-01    4.497e-01    4.500e-01    0.000e+00  
  6.9000e-09    4.497e-01    4.497e-01    4.500e-01    0.000e+00  
  7.0000e-09    4.497e-01    4.497e-01    4.500e-01    0.000e+00  
  7.1000e-09    4.497e-01    4.497e-01    4.500e-01    0.000e+00  
  7.2000e-09    4.497e-01    4.497e-01    4.500e-01    0.000e+00  
  7.3000e-09    4.497e-01    4.497e-01    4.500e-01    0.000e+00  
  7.4000e-09    4.497e-01    4.497e-01    4.500e-01    0.000e+00  
  7.5000e-09    4.497e-01    4.497e-01    4.500e-01    0.000e+00  
  7.6000e-09    4.506e-01    4.496e-01    4.500e-01    9.000e-01  
  7.7000e-09    4.499e-01    4.496e-01    4.500e-01    9.000e-01  
  7.8000e-09    4.500e-01    4.497e-01    4.500e-01    9.000e-01  
  7.9000e-09    4.500e-01    4.496e-01    4.500e-01    9.000e-01  
  8.0000e-09    4.499e-01    4.496e-01    4.500e-01    9.000e-01  
  8.1000e-09    4.499e-01    4.496e-01    4.500e-01    9.000e-01  
  8.2000e-09    4.499e-01    4.496e-01    4.500e-01    9.000e-01  
  8.3000e-09    4.499e-01    4.496e-01    4.500e-01    9.000e-01  
  8.4000e-09    4.499e-01    4.496e-01    4.500e-01    9.000e-01  
  8.5000e-09    4.499e-01    4.496e-01    4.500e-01    9.000e-01  
  8.6000e-09    4.499e-01    4.496e-01    4.500e-01    9.000e-01  
  8.7000e-09    4.499e-01    4.496e-01    4.500e-01    9.000e-01  
  8.8000e-09    4.499e-01    4.496e-01    4.500e-01    9.000e-01  
  8.9000e-09    4.499e-01    4.496e-01    4.500e-01    9.000e-01  
  9.0000e-09    4.499e-01    4.496e-01    4.500e-01    9.000e-01  
  9.1000e-09    4.500e-01    4.496e-01    4.500e-01    9.000e-01  
  9.2000e-09    4.500e-01    4.496e-01    4.500e-01    9.000e-01  
  9.3000e-09    4.500e-01    4.496e-01    4.500e-01    9.000e-01  
  9.4000e-09    4.500e-01    4.496e-01    4.500e-01    9.000e-01  
  9.5000e-09    4.500e-01    4.496e-01    4.500e-01    9.000e-01  
  9.6000e-09    4.500e-01    4.496e-01    4.500e-01    9.000e-01  
  9.7000e-09    4.499e-01    4.496e-01    4.500e-01    9.000e-01  
  9.8000e-09    4.499e-01    4.496e-01    4.500e-01    9.000e-01  
  9.9000e-09    4.499e-01    4.496e-01    4.500e-01    9.000e-01  
  1.0000e-08    4.499e-01    4.496e-01    4.500e-01    9.000e-01  
  1.0100e-08    4.465e-01    4.498e-01    0.000e+00    0.000e+00  
  1.0200e-08    4.496e-01    4.497e-01    0.000e+00    0.000e+00  
  1.0300e-08    4.496e-01    4.497e-01    0.000e+00    0.000e+00  
  1.0400e-08    4.496e-01    4.497e-01    0.000e+00    0.000e+00  
  1.0500e-08    4.496e-01    4.497e-01    0.000e+00    0.000e+00  
  1.0600e-08    4.496e-01    4.497e-01    0.000e+00    0.000e+00  
  1.0700e-08    4.496e-01    4.497e-01    0.000e+00    0.000e+00  
  1.0800e-08    4.496e-01    4.497e-01    0.000e+00    0.000e+00  
  1.0900e-08    4.496e-01    4.497e-01    0.000e+00    0.000e+00  
  1.1000e-08    4.496e-01    4.497e-01    0.000e+00    0.000e+00  
  1.1100e-08    4.496e-01    4.497e-01    0.000e+00    0.000e+00  
  1.1200e-08    4.496e-01    4.497e-01    0.000e+00    0.000e+00  
  1.1300e-08    4.496e-01    4.497e-01    0.000e+00    0.000e+00  
  1.1400e-08    4.496e-01    4.497e-01    0.000e+00    0.000e+00  
  1.1500e-08    4.496e-01    4.497e-01    0.000e+00    0.000e+00  
  1.1600e-08    4.496e-01    4.497e-01    0.000e+00    0.000e+00  
  1.1700e-08    4.496e-01    4.497e-01    0.000e+00    0.000e+00  
  1.1800e-08    4.496e-01    4.497e-01    0.000e+00    0.000e+00  
  1.1900e-08    4.496e-01    4.497e-01    0.000e+00    0.000e+00  
  1.2000e-08    4.496e-01    4.497e-01    0.000e+00    0.000e+00  
  1.2100e-08    4.496e-01    4.497e-01    0.000e+00    0.000e+00  
  1.2200e-08    4.496e-01    4.497e-01    0.000e+00    0.000e+00  
  1.2300e-08    4.496e-01    4.497e-01    0.000e+00    0.000e+00  
  1.2400e-08    4.496e-01    4.497e-01    0.000e+00    0.000e+00  
  1.2500e-08    4.496e-01    4.497e-01    0.000e+00    0.000e+00  
  1.2600e-08    4.496e-01    4.497e-01    0.000e+00    0.000e+00  
  1.2700e-08    4.496e-01    4.497e-01    0.000e+00    0.000e+00  
  1.2800e-08    4.496e-01    4.497e-01    0.000e+00    0.000e+00  
  1.2900e-08    4.496e-01    4.497e-01    0.000e+00    0.000e+00  
  1.3000e-08    4.496e-01    4.497e-01    0.000e+00    0.000e+00  
  1.3100e-08    4.496e-01    4.497e-01    0.000e+00    0.000e+00  
  1.3200e-08    4.496e-01    4.497e-01    0.000e+00    0.000e+00  
  1.3300e-08    4.496e-01    4.497e-01    0.000e+00    0.000e+00  
  1.3400e-08    4.496e-01    4.497e-01    0.000e+00    0.000e+00  
  1.3500e-08    4.496e-01    4.497e-01    0.000e+00    0.000e+00  
  1.3600e-08    4.496e-01    4.497e-01    0.000e+00    0.000e+00  
  1.3700e-08    4.496e-01    4.497e-01    0.000e+00    0.000e+00  
  1.3800e-08    4.496e-01    4.497e-01    0.000e+00    0.000e+00  
  1.3900e-08    4.496e-01    4.497e-01    0.000e+00    0.000e+00  
  1.4000e-08    4.496e-01    4.497e-01    0.000e+00    0.000e+00  
  1.4100e-08    4.496e-01    4.497e-01    0.000e+00    0.000e+00  
  1.4200e-08    4.496e-01    4.497e-01    0.000e+00    0.000e+00  
  1.4300e-08    4.496e-01    4.497e-01    0.000e+00    0.000e+00  
  1.4400e-08    4.496e-01    4.497e-01    0.000e+00    0.000e+00  
  1.4500e-08    4.496e-01    4.497e-01    0.000e+00    0.000e+00  
  1.4600e-08    4.496e-01    4.497e-01    0.000e+00    0.000e+00  
  1.4700e-08    4.496e-01    4.497e-01    0.000e+00    0.000e+00  
  1.4800e-08    4.496e-01    4.497e-01    0.000e+00    0.000e+00  
  1.4900e-08    4.496e-01    4.497e-01    0.000e+00    0.000e+00  
  1.5000e-08    4.496e-01    4.497e-01    0.000e+00    0.000e+00  
  1.5100e-08    4.527e-01    4.499e-01    9.000e-01    0.000e+00  
  1.5200e-08    4.496e-01    4.496e-01    9.000e-01    0.000e+00  
  1.5300e-08    4.497e-01    4.497e-01    9.000e-01    0.000e+00  
  1.5400e-08    4.497e-01    4.497e-01    9.000e-01    0.000e+00  
  1.5500e-08    4.497e-01    4.497e-01    9.000e-01    0.000e+00  
  1.5600e-08    4.497e-01    4.497e-01    9.000e-01    0.000e+00  
  1.5700e-08    4.496e-01    4.497e-01    9.000e-01    0.000e+00  
  1.5800e-08    4.497e-01    4.497e-01    9.000e-01    0.000e+00  
  1.5900e-08    4.497e-01    4.497e-01    9.000e-01    0.000e+00  
  1.6000e-08    4.497e-01    4.497e-01    9.000e-01    0.000e+00  
  1.6100e-08    4.497e-01    4.497e-01    9.000e-01    0.000e+00  
  1.6200e-08    4.497e-01    4.497e-01    9.000e-01    0.000e+00  
  1.6300e-08    4.497e-01    4.497e-01    9.000e-01    0.000e+00  
  1.6400e-08    4.497e-01    4.497e-01    9.000e-01    0.000e+00  
  1.6500e-08    4.497e-01    4.497e-01    9.000e-01    0.000e+00  
  1.6600e-08    4.496e-01    4.496e-01    9.000e-01    0.000e+00  
  1.6700e-08    4.496e-01    4.497e-01    9.000e-01    0.000e+00  
  1.6800e-08    4.497e-01    4.497e-01    9.000e-01    0.000e+00  
  1.6900e-08    4.497e-01    4.497e-01    9.000e-01    0.000e+00  
  1.7000e-08    4.497e-01    4.497e-01    9.000e-01    0.000e+00  
  1.7100e-08    4.497e-01    4.497e-01    9.000e-01    0.000e+00  
  1.7200e-08    4.497e-01    4.497e-01    9.000e-01    0.000e+00  
  1.7300e-08    4.497e-01    4.497e-01    9.000e-01    0.000e+00  
  1.7400e-08    4.497e-01    4.497e-01    9.000e-01    0.000e+00  
  1.7500e-08    4.497e-01    4.497e-01    9.000e-01    0.000e+00  
  1.7600e-08    8.998e-01    4.472e-04    9.000e-01    9.000e-01  
  1.7700e-08    9.000e-01    1.548e-04    9.000e-01    9.000e-01  
  1.7800e-08    9.000e-01    1.301e-04    9.000e-01    9.000e-01  
  1.7900e-08    9.000e-01    1.220e-04    9.000e-01    9.000e-01  
  1.8000e-08    9.000e-01    1.177e-04    9.000e-01    9.000e-01  
  1.8100e-08    9.000e-01    1.160e-04    9.000e-01    9.000e-01  
  1.8200e-08    9.000e-01    1.146e-04    9.000e-01    9.000e-01  
  1.8300e-08    9.000e-01    1.135e-04    9.000e-01    9.000e-01  
  1.8400e-08    9.000e-01    1.133e-04    9.000e-01    9.000e-01  
  1.8500e-08    9.000e-01    1.132e-04    9.000e-01    9.000e-01  
  1.8600e-08    9.000e-01    1.130e-04    9.000e-01    9.000e-01  
  1.8700e-08    9.000e-01    1.128e-04    9.000e-01    9.000e-01  
  1.8800e-08    9.000e-01    1.127e-04    9.000e-01    9.000e-01  
  1.8900e-08    9.000e-01    1.127e-04    9.000e-01    9.000e-01  
  1.9000e-08    9.000e-01    1.126e-04    9.000e-01    9.000e-01  
  1.9100e-08    9.000e-01    1.125e-04    9.000e-01    9.000e-01  
  1.9200e-08    9.000e-01    1.125e-04    9.000e-01    9.000e-01  
  1.9300e-08    9.000e-01    1.124e-04    9.000e-01    9.000e-01  
  1.9400e-08    9.000e-01    1.124e-04    9.000e-01    9.000e-01  
  1.9500e-08    9.000e-01    1.123e-04    9.000e-01    9.000e-01  
  1.9600e-08    9.000e-01    1.124e-04    9.000e-01    9.000e-01  
  1.9700e-08    9.000e-01    1.125e-04    9.000e-01    9.000e-01  
  1.9800e-08    9.000e-01    1.126e-04    9.000e-01    9.000e-01  
  1.9900e-08    9.000e-01    1.126e-04    9.000e-01    9.000e-01  
  2.0000e-08    9.000e-01    1.127e-04    9.000e-01    9.000e-01  
  2.0100e-08    9.075e-01   -1.162e-03    0.000e+00    0.000e+00  
  2.0200e-08    8.997e-01    1.278e-04    0.000e+00    0.000e+00  
  2.0300e-08    8.998e-01    9.984e-05    0.000e+00    0.000e+00  
  2.0400e-08    8.998e-01    9.686e-05    0.000e+00    0.000e+00  
  2.0500e-08    8.998e-01    1.146e-04    0.000e+00    0.000e+00  
  2.0600e-08    8.997e-01    1.323e-04    0.000e+00    0.000e+00  
  2.0700e-08    8.997e-01    1.363e-04    0.000e+00    0.000e+00  
  2.0800e-08    8.997e-01    1.284e-04    0.000e+00    0.000e+00  
  2.0900e-08    8.998e-01    1.205e-04    0.000e+00    0.000e+00  
  2.1000e-08    8.998e-01    1.126e-04    0.000e+00    0.000e+00  
  2.1100e-08    8.998e-01    1.048e-04    0.000e+00    0.000e+00  
  2.1200e-08    8.998e-01    9.688e-05    0.000e+00    0.000e+00  
  2.1300e-08    8.998e-01    8.901e-05    0.000e+00    0.000e+00  
  2.1400e-08    8.998e-01    8.776e-05    0.000e+00    0.000e+00  
  2.1500e-08    8.998e-01    9.246e-05    0.000e+00    0.000e+00  
  2.1600e-08    8.998e-01    9.715e-05    0.000e+00    0.000e+00  
  2.1700e-08    8.998e-01    1.019e-04    0.000e+00    0.000e+00  
  2.1800e-08    8.998e-01    1.065e-04    0.000e+00    0.000e+00  
  2.1900e-08    8.998e-01    1.112e-04    0.000e+00    0.000e+00  
  2.2000e-08    8.998e-01    1.159e-04    0.000e+00    0.000e+00  
  2.2100e-08    8.998e-01    1.206e-04    0.000e+00    0.000e+00  
  2.2200e-08    8.997e-01    1.253e-04    0.000e+00    0.000e+00  
  2.2300e-08    8.997e-01    1.300e-04    0.000e+00    0.000e+00  
  2.2400e-08    8.997e-01    1.347e-04    0.000e+00    0.000e+00  
  2.2500e-08    8.997e-01    1.394e-04    0.000e+00    0.000e+00  
  2.2600e-08    8.997e-01   -3.902e-03    0.000e+00    0.000e+00  
  2.2700e-08    8.998e-01    1.133e-04    0.000e+00    0.000e+00  
  2.2800e-08    8.998e-01    1.132e-04    0.000e+00    0.000e+00  
  2.2900e-08    8.998e-01    1.188e-04    0.000e+00    0.000e+00  
  2.3000e-08    8.998e-01    1.136e-04    0.000e+00    0.000e+00  
  2.3100e-08    8.997e-01    1.084e-04    0.000e+00    0.000e+00  
  2.3200e-08    8.997e-01    1.070e-04    0.000e+00    0.000e+00  
  2.3300e-08    8.998e-01    1.095e-04    0.000e+00    0.000e+00  
  2.3400e-08    8.998e-01    1.119e-04    0.000e+00    0.000e+00  
  2.3500e-08    8.998e-01    1.144e-04    0.000e+00    0.000e+00  
  2.3600e-08    8.998e-01    1.168e-04    0.000e+00    0.000e+00  
  2.3700e-08    8.998e-01    1.193e-04    0.000e+00    0.000e+00  
  2.3800e-08    8.998e-01    1.196e-04    0.000e+00    0.000e+00  
  2.3900e-08    8.998e-01    1.184e-04    0.000e+00    0.000e+00  
  2.4000e-08    8.998e-01    1.173e-04    0.000e+00    0.000e+00  
  2.4100e-08    8.998e-01    1.162e-04    0.000e+00    0.000e+00  
  2.4200e-08    8.998e-01    1.150e-04    0.000e+00    0.000e+00  
  2.4300e-08    8.998e-01    1.139e-04    0.000e+00    0.000e+00  
  2.4400e-08    8.998e-01    1.128e-04    0.000e+00    0.000e+00  
  2.4500e-08    8.998e-01    1.116e-04    0.000e+00    0.000e+00  
  2.4600e-08    8.998e-01    1.105e-04    0.000e+00    0.000e+00  
  2.4700e-08    8.998e-01    1.093e-04    0.000e+00    0.000e+00  
  2.4800e-08    8.997e-01    1.082e-04    0.000e+00    0.000e+00  
  2.4900e-08    8.997e-01    1.071e-04    0.000e+00    0.000e+00  
  2.5000e-08    8.997e-01    1.059e-04    0.000e+00    0.000e+00  
  2.5100e-08    9.000e-01    5.777e-04    0.000e+00    0.000e+00  
  2.5200e-08    8.998e-01    1.149e-04    0.000e+00    0.000e+00  
  2.5300e-08    8.998e-01    1.054e-04    0.000e+00    0.000e+00  
  2.5400e-08    8.998e-01    1.187e-04    0.000e+00    0.000e+00  
  2.5500e-08    8.998e-01    1.237e-04    0.000e+00    0.000e+00  
  2.5600e-08    8.998e-01    1.179e-04    0.000e+00    0.000e+00  
  2.5700e-08    8.998e-01    1.122e-04    0.000e+00    0.000e+00  
  2.5800e-08    8.998e-01    1.065e-04    0.000e+00    0.000e+00  
  2.5900e-08    8.998e-01    1.007e-04    0.000e+00    0.000e+00  
  2.6000e-08    8.998e-01    1.005e-04    0.000e+00    0.000e+00  
  2.6100e-08    8.998e-01    1.027e-04    0.000e+00    0.000e+00  
  2.6200e-08    8.998e-01    1.049e-04    0.000e+00    0.000e+00  
  2.6300e-08    8.998e-01    1.071e-04    0.000e+00    0.000e+00  
  2.6400e-08    8.998e-01    1.093e-04    0.000e+00    0.000e+00  
  2.6500e-08    8.998e-01    1.114e-04    0.000e+00    0.000e+00  
  2.6600e-08    8.998e-01    1.136e-04    0.000e+00    0.000e+00  
  2.6700e-08    8.998e-01    1.158e-04    0.000e+00    0.000e+00  
  2.6800e-08    8.998e-01    1.180e-04    0.000e+00    0.000e+00  
  2.6900e-08    8.998e-01    1.202e-04    0.000e+00    0.000e+00  
  2.7000e-08    8.998e-01    1.224e-04    0.000e+00    0.000e+00  
  2.7100e-08    8.998e-01    1.246e-04    0.000e+00    0.000e+00  
  2.7200e-08    8.998e-01    1.234e-04    0.000e+00    0.000e+00  
  2.7300e-08    8.998e-01    1.153e-04    0.000e+00    0.000e+00  
  2.7400e-08    8.998e-01    1.072e-04    0.000e+00    0.000e+00  
  2.7500e-08    8.998e-01    9.914e-05    0.000e+00    0.000e+00  
  2.7600e-08    1.576e-03    8.979e-01    0.000e+00    9.000e-01  
  2.7700e-08    4.741e-05    8.999e-01    0.000e+00    9.000e-01  
  2.7800e-08    4.463e-05    9.000e-01    0.000e+00    9.000e-01  
  2.7900e-08    3.546e-05    9.000e-01    0.000e+00    9.000e-01  
  2.8000e-08    3.864e-05    9.000e-01    0.000e+00    9.000e-01  
  2.8100e-08    4.038e-05    9.000e-01    0.000e+00    9.000e-01  
  2.8200e-08    3.751e-05    9.000e-01    0.000e+00    9.000e-01  
  2.8300e-08    3.463e-05    9.000e-01    0.000e+00    9.000e-01  
  2.8400e-08    3.226e-05    9.000e-01    0.000e+00    9.000e-01  
  2.8500e-08    3.379e-05    9.000e-01    0.000e+00    9.000e-01  
  2.8600e-08    3.532e-05    9.000e-01    0.000e+00    9.000e-01  
  2.8700e-08    3.685e-05    9.000e-01    0.000e+00    9.000e-01  
  2.8800e-08    3.838e-05    9.000e-01    0.000e+00    9.000e-01  
  2.8900e-08    3.974e-05    9.000e-01    0.000e+00    9.000e-01  
  2.9000e-08    3.879e-05    9.000e-01    0.000e+00    9.000e-01  
  2.9100e-08    3.784e-05    9.000e-01    0.000e+00    9.000e-01  
  2.9200e-08    3.689e-05    9.000e-01    0.000e+00    9.000e-01  
  2.9300e-08    3.594e-05    9.000e-01    0.000e+00    9.000e-01  
  2.9400e-08    3.500e-05    9.000e-01    0.000e+00    9.000e-01  
  2.9500e-08    3.405e-05    9.000e-01    0.000e+00    9.000e-01  
  2.9600e-08    3.310e-05    9.000e-01    0.000e+00    9.000e-01  
  2.9700e-08    3.215e-05    9.000e-01    0.000e+00    9.000e-01  
  2.9800e-08    3.403e-05    9.000e-01    0.000e+00    9.000e-01  
  2.9900e-08    3.688e-05    9.000e-01    0.000e+00    9.000e-01  
  3.0000e-08    3.973e-05    9.000e-01    0.000e+00    9.000e-01  
  3.0100e-08   -1.298e-03    9.000e-01    0.000e+00    0.000e+00  
  3.0200e-08    1.167e-04    9.000e-01    0.000e+00    0.000e+00  
  3.0300e-08    1.075e-04    9.000e-01    0.000e+00    0.000e+00  
  3.0400e-08    1.109e-04    9.000e-01    0.000e+00    0.000e+00  
  3.0500e-08    1.142e-04    9.000e-01    0.000e+00    0.000e+00  
  3.0600e-08    1.176e-04    9.000e-01    0.000e+00    0.000e+00  
  3.0700e-08    1.167e-04    9.000e-01    0.000e+00    0.000e+00  
  3.0800e-08    1.157e-04    9.000e-01    0.000e+00    0.000e+00  
  3.0900e-08    1.147e-04    9.000e-01    0.000e+00    0.000e+00  
  3.1000e-08    1.136e-04    9.000e-01    0.000e+00    0.000e+00  
  3.1100e-08    1.126e-04    9.000e-01    0.000e+00    0.000e+00  
  3.1200e-08    1.116e-04    9.000e-01    0.000e+00    0.000e+00  
  3.1300e-08    1.105e-04    9.000e-01    0.000e+00    0.000e+00  
  3.1400e-08    1.095e-04    9.000e-01    0.000e+00    0.000e+00  
  3.1500e-08    1.085e-04    9.000e-01    0.000e+00    0.000e+00  
  3.1600e-08    1.075e-04    9.000e-01    0.000e+00    0.000e+00  
  3.1700e-08    1.083e-04    9.000e-01    0.000e+00    0.000e+00  
  3.1800e-08    1.095e-04    9.000e-01    0.000e+00    0.000e+00  
  3.1900e-08    1.107e-04    9.000e-01    0.000e+00    0.000e+00  
  3.2000e-08    1.118e-04    9.000e-01    0.000e+00    0.000e+00  
  3.2100e-08    1.130e-04    9.000e-01    0.000e+00    0.000e+00  
  3.2200e-08    1.142e-04    9.000e-01    0.000e+00    0.000e+00  
  3.2300e-08    1.153e-04    9.000e-01    0.000e+00    0.000e+00  
  3.2400e-08    1.165e-04    9.000e-01    0.000e+00    0.000e+00  
  3.2500e-08    1.177e-04    9.000e-01    0.000e+00    0.000e+00  
  3.2600e-08    1.178e-04    9.000e-01    0.000e+00    0.000e+00  
  3.2700e-08    1.126e-04    9.000e-01    0.000e+00    0.000e+00  
  3.2800e-08    1.125e-04    9.000e-01    0.000e+00    0.000e+00  
  3.2900e-08    1.125e-04    9.000e-01    0.000e+00    0.000e+00  
  3.3000e-08    1.125e-04    9.000e-01    0.000e+00    0.000e+00  
  3.3100e-08    1.125e-04    9.000e-01    0.000e+00    0.000e+00  
  3.3200e-08    1.125e-04    9.000e-01    0.000e+00    0.000e+00  
  3.3300e-08    1.126e-04    9.000e-01    0.000e+00    0.000e+00  
  3.3400e-08    1.126e-04    9.000e-01    0.000e+00    0.000e+00  
  3.3500e-08    1.126e-04    9.000e-01    0.000e+00    0.000e+00  
  3.3600e-08    1.125e-04    9.000e-01    0.000e+00    0.000e+00  
  3.3700e-08    1.125e-04    9.000e-01    0.000e+00    0.000e+00  
  3.3800e-08    1.125e-04    9.000e-01    0.000e+00    0.000e+00  
  3.3900e-08    1.125e-04    9.000e-01    0.000e+00    0.000e+00  
  3.4000e-08    1.125e-04    9.000e-01    0.000e+00    0.000e+00  
  3.4100e-08    1.125e-04    9.000e-01    0.000e+00    0.000e+00  
  3.4200e-08    1.125e-04    9.000e-01    0.000e+00    0.000e+00  
  3.4300e-08    1.125e-04    9.000e-01    0.000e+00    0.000e+00  
  3.4400e-08    1.125e-04    9.000e-01    0.000e+00    0.000e+00  
  3.4500e-08    1.125e-04    9.000e-01    0.000e+00    0.000e+00  
  3.4600e-08    1.125e-04    9.000e-01    0.000e+00    0.000e+00  
  3.4700e-08    1.125e-04    9.000e-01    0.000e+00    0.000e+00  
  3.4800e-08    1.125e-04    9.000e-01    0.000e+00    0.000e+00  
  3.4900e-08    1.125e-04    9.000e-01    0.000e+00    0.000e+00  
  3.5000e-08    1.125e-04    9.000e-01    0.000e+00    0.000e+00  
  3.5100e-08    1.125e-04    9.000e-01    0.000e+00    0.000e+00  
  3.5200e-08    1.125e-04    9.000e-01    0.000e+00    0.000e+00  
  3.5300e-08    1.125e-04    9.000e-01    0.000e+00    0.000e+00  
  3.5400e-08    1.125e-04    9.000e-01    0.000e+00    0.000e+00  
  3.5500e-08    1.125e-04    9.000e-01    0.000e+00    0.000e+00  
  3.5600e-08    1.125e-04    9.000e-01    0.000e+00    0.000e+00  
  3.5700e-08    1.125e-04    9.000e-01    0.000e+00    0.000e+00  
  3.5800e-08    1.125e-04    9.000e-01    0.000e+00    0.000e+00  
  3.5900e-08    1.125e-04    9.000e-01    0.000e+00    0.000e+00  
  3.6000e-08    1.125e-04    9.000e-01    0.000e+00    0.000e+00  
  3.6100e-08    1.125e-04    9.000e-01    0.000e+00    0.000e+00  
  3.6200e-08    1.125e-04    9.000e-01    0.000e+00    0.000e+00  
  3.6300e-08    1.125e-04    9.000e-01    0.000e+00    0.000e+00  
  3.6400e-08    1.125e-04    9.000e-01    0.000e+00    0.000e+00  
  3.6500e-08    1.125e-04    9.000e-01    0.000e+00    0.000e+00  
  3.6600e-08    1.125e-04    9.000e-01    0.000e+00    0.000e+00  
  3.6700e-08    1.125e-04    9.000e-01    0.000e+00    0.000e+00  
  3.6800e-08    1.125e-04    9.000e-01    0.000e+00    0.000e+00  
  3.6900e-08    1.125e-04    9.000e-01    0.000e+00    0.000e+00  
  3.7000e-08    1.125e-04    9.000e-01    0.000e+00    0.000e+00  
  3.7100e-08    1.125e-04    9.000e-01    0.000e+00    0.000e+00  
  3.7200e-08    1.125e-04    9.000e-01    0.000e+00    0.000e+00  
  3.7300e-08    1.125e-04    9.000e-01    0.000e+00    0.000e+00  
  3.7400e-08    1.125e-04    9.000e-01    0.000e+00    0.000e+00  
  3.7500e-08    1.125e-04    9.000e-01    0.000e+00    0.000e+00  
  3.7600e-08    1.125e-04    9.000e-01    0.000e+00    0.000e+00  
  3.7700e-08    1.125e-04    9.000e-01    0.000e+00    0.000e+00  
  3.7800e-08    1.125e-04    9.000e-01    0.000e+00    0.000e+00  
  3.7900e-08    1.125e-04    9.000e-01    0.000e+00    0.000e+00  
  3.8000e-08    1.125e-04    9.000e-01    0.000e+00    0.000e+00  
  3.8100e-08    1.125e-04    9.000e-01    0.000e+00    0.000e+00  
  3.8200e-08    1.125e-04    9.000e-01    0.000e+00    0.000e+00  
  3.8300e-08    1.125e-04    9.000e-01    0.000e+00    0.000e+00  
  3.8400e-08    1.125e-04    9.000e-01    0.000e+00    0.000e+00  
  3.8500e-08    1.125e-04    9.000e-01    0.000e+00    0.000e+00  
  3.8600e-08    1.125e-04    9.000e-01    0.000e+00    0.000e+00  
  3.8700e-08    1.125e-04    9.000e-01    0.000e+00    0.000e+00  
  3.8800e-08    1.125e-04    9.000e-01    0.000e+00    0.000e+00  
  3.8900e-08    1.125e-04    9.000e-01    0.000e+00    0.000e+00  
  3.9000e-08    1.125e-04    9.000e-01    0.000e+00    0.000e+00  
  3.9100e-08    1.125e-04    9.000e-01    0.000e+00    0.000e+00  
  3.9200e-08    1.125e-04    9.000e-01    0.000e+00    0.000e+00  
  3.9300e-08    1.125e-04    9.000e-01    0.000e+00    0.000e+00  
  3.9400e-08    1.125e-04    9.000e-01    0.000e+00    0.000e+00  
  3.9500e-08    1.125e-04    9.000e-01    0.000e+00    0.000e+00  
  3.9600e-08    1.125e-04    9.000e-01    0.000e+00    0.000e+00  
  3.9700e-08    1.125e-04    9.000e-01    0.000e+00    0.000e+00  
  3.9800e-08    1.125e-04    9.000e-01    0.000e+00    0.000e+00  
  3.9900e-08    1.125e-04    9.000e-01    0.000e+00    0.000e+00  
  4.0000e-08    1.125e-04    9.000e-01    0.000e+00    0.000e+00  
y
x

        time    voltage    
                   wwlb    
  0.0000e+00    9.000e-01  
  1.0000e-10    9.000e-01  
  2.0000e-10    9.000e-01  
  3.0000e-10    9.000e-01  
  4.0000e-10    9.000e-01  
  5.0000e-10    9.000e-01  
  6.0000e-10    9.000e-01  
  7.0000e-10    9.000e-01  
  8.0000e-10    9.000e-01  
  9.0000e-10    9.000e-01  
  1.0000e-09    9.000e-01  
  1.1000e-09    9.000e-01  
  1.2000e-09    9.000e-01  
  1.3000e-09    9.000e-01  
  1.4000e-09    9.000e-01  
  1.5000e-09    9.000e-01  
  1.6000e-09    9.000e-01  
  1.7000e-09    9.000e-01  
  1.8000e-09    9.000e-01  
  1.9000e-09    9.000e-01  
  2.0000e-09    9.000e-01  
  2.1000e-09    9.000e-01  
  2.2000e-09    9.000e-01  
  2.3000e-09    9.000e-01  
  2.4000e-09    9.000e-01  
  2.5000e-09    9.000e-01  
  2.6000e-09    9.000e-01  
  2.7000e-09    9.000e-01  
  2.8000e-09    9.000e-01  
  2.9000e-09    9.000e-01  
  3.0000e-09    9.000e-01  
  3.1000e-09    9.000e-01  
  3.2000e-09    9.000e-01  
  3.3000e-09    9.000e-01  
  3.4000e-09    9.000e-01  
  3.5000e-09    9.000e-01  
  3.6000e-09    9.000e-01  
  3.7000e-09    9.000e-01  
  3.8000e-09    9.000e-01  
  3.9000e-09    9.000e-01  
  4.0000e-09    9.000e-01  
  4.1000e-09    9.000e-01  
  4.2000e-09    9.000e-01  
  4.3000e-09    9.000e-01  
  4.4000e-09    9.000e-01  
  4.5000e-09    9.000e-01  
  4.6000e-09    9.000e-01  
  4.7000e-09    9.000e-01  
  4.8000e-09    9.000e-01  
  4.9000e-09    9.000e-01  
  5.0000e-09    9.000e-01  
  5.1000e-09    9.000e-01  
  5.2000e-09    9.000e-01  
  5.3000e-09    9.000e-01  
  5.4000e-09    9.000e-01  
  5.5000e-09    9.000e-01  
  5.6000e-09    9.000e-01  
  5.7000e-09    9.000e-01  
  5.8000e-09    9.000e-01  
  5.9000e-09    9.000e-01  
  6.0000e-09    9.000e-01  
  6.1000e-09    9.000e-01  
  6.2000e-09    9.000e-01  
  6.3000e-09    9.000e-01  
  6.4000e-09    9.000e-01  
  6.5000e-09    9.000e-01  
  6.6000e-09    9.000e-01  
  6.7000e-09    9.000e-01  
  6.8000e-09    9.000e-01  
  6.9000e-09    9.000e-01  
  7.0000e-09    9.000e-01  
  7.1000e-09    9.000e-01  
  7.2000e-09    9.000e-01  
  7.3000e-09    9.000e-01  
  7.4000e-09    9.000e-01  
  7.5000e-09    9.000e-01  
  7.6000e-09    0.000e+00  
  7.7000e-09    0.000e+00  
  7.8000e-09    0.000e+00  
  7.9000e-09    0.000e+00  
  8.0000e-09    0.000e+00  
  8.1000e-09    0.000e+00  
  8.2000e-09    0.000e+00  
  8.3000e-09    0.000e+00  
  8.4000e-09    0.000e+00  
  8.5000e-09    0.000e+00  
  8.6000e-09    0.000e+00  
  8.7000e-09    0.000e+00  
  8.8000e-09    0.000e+00  
  8.9000e-09    0.000e+00  
  9.0000e-09    0.000e+00  
  9.1000e-09    0.000e+00  
  9.2000e-09    0.000e+00  
  9.3000e-09    0.000e+00  
  9.4000e-09    0.000e+00  
  9.5000e-09    0.000e+00  
  9.6000e-09    0.000e+00  
  9.7000e-09    0.000e+00  
  9.8000e-09    0.000e+00  
  9.9000e-09    0.000e+00  
  1.0000e-08    0.000e+00  
  1.0100e-08    9.000e-01  
  1.0200e-08    9.000e-01  
  1.0300e-08    9.000e-01  
  1.0400e-08    9.000e-01  
  1.0500e-08    9.000e-01  
  1.0600e-08    9.000e-01  
  1.0700e-08    9.000e-01  
  1.0800e-08    9.000e-01  
  1.0900e-08    9.000e-01  
  1.1000e-08    9.000e-01  
  1.1100e-08    9.000e-01  
  1.1200e-08    9.000e-01  
  1.1300e-08    9.000e-01  
  1.1400e-08    9.000e-01  
  1.1500e-08    9.000e-01  
  1.1600e-08    9.000e-01  
  1.1700e-08    9.000e-01  
  1.1800e-08    9.000e-01  
  1.1900e-08    9.000e-01  
  1.2000e-08    9.000e-01  
  1.2100e-08    9.000e-01  
  1.2200e-08    9.000e-01  
  1.2300e-08    9.000e-01  
  1.2400e-08    9.000e-01  
  1.2500e-08    9.000e-01  
  1.2600e-08    9.000e-01  
  1.2700e-08    9.000e-01  
  1.2800e-08    9.000e-01  
  1.2900e-08    9.000e-01  
  1.3000e-08    9.000e-01  
  1.3100e-08    9.000e-01  
  1.3200e-08    9.000e-01  
  1.3300e-08    9.000e-01  
  1.3400e-08    9.000e-01  
  1.3500e-08    9.000e-01  
  1.3600e-08    9.000e-01  
  1.3700e-08    9.000e-01  
  1.3800e-08    9.000e-01  
  1.3900e-08    9.000e-01  
  1.4000e-08    9.000e-01  
  1.4100e-08    9.000e-01  
  1.4200e-08    9.000e-01  
  1.4300e-08    9.000e-01  
  1.4400e-08    9.000e-01  
  1.4500e-08    9.000e-01  
  1.4600e-08    9.000e-01  
  1.4700e-08    9.000e-01  
  1.4800e-08    9.000e-01  
  1.4900e-08    9.000e-01  
  1.5000e-08    9.000e-01  
  1.5100e-08    9.000e-01  
  1.5200e-08    9.000e-01  
  1.5300e-08    9.000e-01  
  1.5400e-08    9.000e-01  
  1.5500e-08    9.000e-01  
  1.5600e-08    9.000e-01  
  1.5700e-08    9.000e-01  
  1.5800e-08    9.000e-01  
  1.5900e-08    9.000e-01  
  1.6000e-08    9.000e-01  
  1.6100e-08    9.000e-01  
  1.6200e-08    9.000e-01  
  1.6300e-08    9.000e-01  
  1.6400e-08    9.000e-01  
  1.6500e-08    9.000e-01  
  1.6600e-08    9.000e-01  
  1.6700e-08    9.000e-01  
  1.6800e-08    9.000e-01  
  1.6900e-08    9.000e-01  
  1.7000e-08    9.000e-01  
  1.7100e-08    9.000e-01  
  1.7200e-08    9.000e-01  
  1.7300e-08    9.000e-01  
  1.7400e-08    9.000e-01  
  1.7500e-08    9.000e-01  
  1.7600e-08    0.000e+00  
  1.7700e-08    0.000e+00  
  1.7800e-08    0.000e+00  
  1.7900e-08    0.000e+00  
  1.8000e-08    0.000e+00  
  1.8100e-08    0.000e+00  
  1.8200e-08    0.000e+00  
  1.8300e-08    0.000e+00  
  1.8400e-08    0.000e+00  
  1.8500e-08    0.000e+00  
  1.8600e-08    0.000e+00  
  1.8700e-08    0.000e+00  
  1.8800e-08    0.000e+00  
  1.8900e-08    0.000e+00  
  1.9000e-08    0.000e+00  
  1.9100e-08    0.000e+00  
  1.9200e-08    0.000e+00  
  1.9300e-08    0.000e+00  
  1.9400e-08    0.000e+00  
  1.9500e-08    0.000e+00  
  1.9600e-08    0.000e+00  
  1.9700e-08    0.000e+00  
  1.9800e-08    0.000e+00  
  1.9900e-08    0.000e+00  
  2.0000e-08    0.000e+00  
  2.0100e-08    9.000e-01  
  2.0200e-08    9.000e-01  
  2.0300e-08    9.000e-01  
  2.0400e-08    9.000e-01  
  2.0500e-08    9.000e-01  
  2.0600e-08    9.000e-01  
  2.0700e-08    9.000e-01  
  2.0800e-08    9.000e-01  
  2.0900e-08    9.000e-01  
  2.1000e-08    9.000e-01  
  2.1100e-08    9.000e-01  
  2.1200e-08    9.000e-01  
  2.1300e-08    9.000e-01  
  2.1400e-08    9.000e-01  
  2.1500e-08    9.000e-01  
  2.1600e-08    9.000e-01  
  2.1700e-08    9.000e-01  
  2.1800e-08    9.000e-01  
  2.1900e-08    9.000e-01  
  2.2000e-08    9.000e-01  
  2.2100e-08    9.000e-01  
  2.2200e-08    9.000e-01  
  2.2300e-08    9.000e-01  
  2.2400e-08    9.000e-01  
  2.2500e-08    9.000e-01  
  2.2600e-08    9.000e-01  
  2.2700e-08    9.000e-01  
  2.2800e-08    9.000e-01  
  2.2900e-08    9.000e-01  
  2.3000e-08    9.000e-01  
  2.3100e-08    9.000e-01  
  2.3200e-08    9.000e-01  
  2.3300e-08    9.000e-01  
  2.3400e-08    9.000e-01  
  2.3500e-08    9.000e-01  
  2.3600e-08    9.000e-01  
  2.3700e-08    9.000e-01  
  2.3800e-08    9.000e-01  
  2.3900e-08    9.000e-01  
  2.4000e-08    9.000e-01  
  2.4100e-08    9.000e-01  
  2.4200e-08    9.000e-01  
  2.4300e-08    9.000e-01  
  2.4400e-08    9.000e-01  
  2.4500e-08    9.000e-01  
  2.4600e-08    9.000e-01  
  2.4700e-08    9.000e-01  
  2.4800e-08    9.000e-01  
  2.4900e-08    9.000e-01  
  2.5000e-08    9.000e-01  
  2.5100e-08    9.000e-01  
  2.5200e-08    9.000e-01  
  2.5300e-08    9.000e-01  
  2.5400e-08    9.000e-01  
  2.5500e-08    9.000e-01  
  2.5600e-08    9.000e-01  
  2.5700e-08    9.000e-01  
  2.5800e-08    9.000e-01  
  2.5900e-08    9.000e-01  
  2.6000e-08    9.000e-01  
  2.6100e-08    9.000e-01  
  2.6200e-08    9.000e-01  
  2.6300e-08    9.000e-01  
  2.6400e-08    9.000e-01  
  2.6500e-08    9.000e-01  
  2.6600e-08    9.000e-01  
  2.6700e-08    9.000e-01  
  2.6800e-08    9.000e-01  
  2.6900e-08    9.000e-01  
  2.7000e-08    9.000e-01  
  2.7100e-08    9.000e-01  
  2.7200e-08    9.000e-01  
  2.7300e-08    9.000e-01  
  2.7400e-08    9.000e-01  
  2.7500e-08    9.000e-01  
  2.7600e-08    0.000e+00  
  2.7700e-08    0.000e+00  
  2.7800e-08    0.000e+00  
  2.7900e-08    0.000e+00  
  2.8000e-08    0.000e+00  
  2.8100e-08    0.000e+00  
  2.8200e-08    0.000e+00  
  2.8300e-08    0.000e+00  
  2.8400e-08    0.000e+00  
  2.8500e-08    0.000e+00  
  2.8600e-08    0.000e+00  
  2.8700e-08    0.000e+00  
  2.8800e-08    0.000e+00  
  2.8900e-08    0.000e+00  
  2.9000e-08    0.000e+00  
  2.9100e-08    0.000e+00  
  2.9200e-08    0.000e+00  
  2.9300e-08    0.000e+00  
  2.9400e-08    0.000e+00  
  2.9500e-08    0.000e+00  
  2.9600e-08    0.000e+00  
  2.9700e-08    0.000e+00  
  2.9800e-08    0.000e+00  
  2.9900e-08    0.000e+00  
  3.0000e-08    0.000e+00  
  3.0100e-08    9.000e-01  
  3.0200e-08    9.000e-01  
  3.0300e-08    9.000e-01  
  3.0400e-08    9.000e-01  
  3.0500e-08    9.000e-01  
  3.0600e-08    9.000e-01  
  3.0700e-08    9.000e-01  
  3.0800e-08    9.000e-01  
  3.0900e-08    9.000e-01  
  3.1000e-08    9.000e-01  
  3.1100e-08    9.000e-01  
  3.1200e-08    9.000e-01  
  3.1300e-08    9.000e-01  
  3.1400e-08    9.000e-01  
  3.1500e-08    9.000e-01  
  3.1600e-08    9.000e-01  
  3.1700e-08    9.000e-01  
  3.1800e-08    9.000e-01  
  3.1900e-08    9.000e-01  
  3.2000e-08    9.000e-01  
  3.2100e-08    9.000e-01  
  3.2200e-08    9.000e-01  
  3.2300e-08    9.000e-01  
  3.2400e-08    9.000e-01  
  3.2500e-08    9.000e-01  
  3.2600e-08    9.000e-01  
  3.2700e-08    9.000e-01  
  3.2800e-08    9.000e-01  
  3.2900e-08    9.000e-01  
  3.3000e-08    9.000e-01  
  3.3100e-08    9.000e-01  
  3.3200e-08    9.000e-01  
  3.3300e-08    9.000e-01  
  3.3400e-08    9.000e-01  
  3.3500e-08    9.000e-01  
  3.3600e-08    9.000e-01  
  3.3700e-08    9.000e-01  
  3.3800e-08    9.000e-01  
  3.3900e-08    9.000e-01  
  3.4000e-08    9.000e-01  
  3.4100e-08    9.000e-01  
  3.4200e-08    9.000e-01  
  3.4300e-08    9.000e-01  
  3.4400e-08    9.000e-01  
  3.4500e-08    9.000e-01  
  3.4600e-08    9.000e-01  
  3.4700e-08    9.000e-01  
  3.4800e-08    9.000e-01  
  3.4900e-08    9.000e-01  
  3.5000e-08    9.000e-01  
  3.5100e-08    9.000e-01  
  3.5200e-08    9.000e-01  
  3.5300e-08    9.000e-01  
  3.5400e-08    9.000e-01  
  3.5500e-08    9.000e-01  
  3.5600e-08    9.000e-01  
  3.5700e-08    9.000e-01  
  3.5800e-08    9.000e-01  
  3.5900e-08    9.000e-01  
  3.6000e-08    9.000e-01  
  3.6100e-08    9.000e-01  
  3.6200e-08    9.000e-01  
  3.6300e-08    9.000e-01  
  3.6400e-08    9.000e-01  
  3.6500e-08    9.000e-01  
  3.6600e-08    9.000e-01  
  3.6700e-08    9.000e-01  
  3.6800e-08    9.000e-01  
  3.6900e-08    9.000e-01  
  3.7000e-08    9.000e-01  
  3.7100e-08    9.000e-01  
  3.7200e-08    9.000e-01  
  3.7300e-08    9.000e-01  
  3.7400e-08    9.000e-01  
  3.7500e-08    9.000e-01  
  3.7600e-08    9.000e-01  
  3.7700e-08    9.000e-01  
  3.7800e-08    9.000e-01  
  3.7900e-08    9.000e-01  
  3.8000e-08    9.000e-01  
  3.8100e-08    9.000e-01  
  3.8200e-08    9.000e-01  
  3.8300e-08    9.000e-01  
  3.8400e-08    9.000e-01  
  3.8500e-08    9.000e-01  
  3.8600e-08    9.000e-01  
  3.8700e-08    9.000e-01  
  3.8800e-08    9.000e-01  
  3.8900e-08    9.000e-01  
  3.9000e-08    9.000e-01  
  3.9100e-08    9.000e-01  
  3.9200e-08    9.000e-01  
  3.9300e-08    9.000e-01  
  3.9400e-08    9.000e-01  
  3.9500e-08    9.000e-01  
  3.9600e-08    9.000e-01  
  3.9700e-08    9.000e-01  
  3.9800e-08    9.000e-01  
  3.9900e-08    9.000e-01  
  4.0000e-08    9.000e-01  
y
-----------------------------------------------
x

        time    current    
                    vdd    
  0.0000e+00   -6.048e-07  
  1.0000e-10   -6.048e-07  
  2.0000e-10   -6.048e-07  
  3.0000e-10   -6.048e-07  
  4.0000e-10   -6.048e-07  
  5.0000e-10   -6.048e-07  
  6.0000e-10   -6.048e-07  
  7.0000e-10   -6.048e-07  
  8.0000e-10   -6.048e-07  
  9.0000e-10   -6.048e-07  
  1.0000e-09   -6.048e-07  
  1.1000e-09   -6.048e-07  
  1.2000e-09   -6.048e-07  
  1.3000e-09   -6.048e-07  
  1.4000e-09   -6.048e-07  
  1.5000e-09   -6.048e-07  
  1.6000e-09   -6.048e-07  
  1.7000e-09   -6.048e-07  
  1.8000e-09   -6.048e-07  
  1.9000e-09   -6.048e-07  
  2.0000e-09   -6.048e-07  
  2.1000e-09   -6.048e-07  
  2.2000e-09   -6.048e-07  
  2.3000e-09   -6.048e-07  
  2.4000e-09   -6.048e-07  
  2.5000e-09   -6.048e-07  
  2.6000e-09   -6.048e-07  
  2.7000e-09   -6.048e-07  
  2.8000e-09   -6.048e-07  
  2.9000e-09   -6.048e-07  
  3.0000e-09   -6.048e-07  
  3.1000e-09   -6.048e-07  
  3.2000e-09   -6.048e-07  
  3.3000e-09   -6.048e-07  
  3.4000e-09   -6.048e-07  
  3.5000e-09   -6.048e-07  
  3.6000e-09   -6.048e-07  
  3.7000e-09   -6.048e-07  
  3.8000e-09   -6.048e-07  
  3.9000e-09   -6.048e-07  
  4.0000e-09   -6.048e-07  
  4.1000e-09   -6.048e-07  
  4.2000e-09   -6.048e-07  
  4.3000e-09   -6.048e-07  
  4.4000e-09   -6.048e-07  
  4.5000e-09   -6.048e-07  
  4.6000e-09   -6.048e-07  
  4.7000e-09   -6.048e-07  
  4.8000e-09   -6.048e-07  
  4.9000e-09   -6.048e-07  
  5.0000e-09   -6.048e-07  
  5.1000e-09   -5.970e-07  
  5.2000e-09   -6.045e-07  
  5.3000e-09   -6.045e-07  
  5.4000e-09   -6.045e-07  
  5.5000e-09   -6.045e-07  
  5.6000e-09   -6.045e-07  
  5.7000e-09   -6.045e-07  
  5.8000e-09   -6.045e-07  
  5.9000e-09   -6.045e-07  
  6.0000e-09   -6.045e-07  
  6.1000e-09   -6.045e-07  
  6.2000e-09   -6.045e-07  
  6.3000e-09   -6.045e-07  
  6.4000e-09   -6.045e-07  
  6.5000e-09   -6.045e-07  
  6.6000e-09   -6.045e-07  
  6.7000e-09   -6.045e-07  
  6.8000e-09   -6.045e-07  
  6.9000e-09   -6.045e-07  
  7.0000e-09   -6.045e-07  
  7.1000e-09   -6.045e-07  
  7.2000e-09   -6.045e-07  
  7.3000e-09   -6.045e-07  
  7.4000e-09   -6.045e-07  
  7.5000e-09   -6.045e-07  
  7.6000e-09   -6.002e-07  
  7.7000e-09   -6.030e-07  
  7.8000e-09   -6.031e-07  
  7.9000e-09   -6.031e-07  
  8.0000e-09   -6.031e-07  
  8.1000e-09   -6.031e-07  
  8.2000e-09   -6.030e-07  
  8.3000e-09   -6.030e-07  
  8.4000e-09   -6.030e-07  
  8.5000e-09   -6.031e-07  
  8.6000e-09   -6.031e-07  
  8.7000e-09   -6.031e-07  
  8.8000e-09   -6.031e-07  
  8.9000e-09   -6.031e-07  
  9.0000e-09   -6.031e-07  
  9.1000e-09   -6.031e-07  
  9.2000e-09   -6.031e-07  
  9.3000e-09   -6.031e-07  
  9.4000e-09   -6.031e-07  
  9.5000e-09   -6.031e-07  
  9.6000e-09   -6.031e-07  
  9.7000e-09   -6.031e-07  
  9.8000e-09   -6.031e-07  
  9.9000e-09   -6.030e-07  
  1.0000e-08   -6.030e-07  
  1.0100e-08   -6.226e-07  
  1.0200e-08   -6.048e-07  
  1.0300e-08   -6.048e-07  
  1.0400e-08   -6.048e-07  
  1.0500e-08   -6.048e-07  
  1.0600e-08   -6.048e-07  
  1.0700e-08   -6.048e-07  
  1.0800e-08   -6.048e-07  
  1.0900e-08   -6.048e-07  
  1.1000e-08   -6.048e-07  
  1.1100e-08   -6.048e-07  
  1.1200e-08   -6.048e-07  
  1.1300e-08   -6.048e-07  
  1.1400e-08   -6.048e-07  
  1.1500e-08   -6.048e-07  
  1.1600e-08   -6.048e-07  
  1.1700e-08   -6.048e-07  
  1.1800e-08   -6.048e-07  
  1.1900e-08   -6.048e-07  
  1.2000e-08   -6.048e-07  
  1.2100e-08   -6.048e-07  
  1.2200e-08   -6.048e-07  
  1.2300e-08   -6.048e-07  
  1.2400e-08   -6.048e-07  
  1.2500e-08   -6.048e-07  
  1.2600e-08   -6.047e-07  
  1.2700e-08   -6.047e-07  
  1.2800e-08   -6.048e-07  
  1.2900e-08   -6.048e-07  
  1.3000e-08   -6.048e-07  
  1.3100e-08   -6.048e-07  
  1.3200e-08   -6.048e-07  
  1.3300e-08   -6.047e-07  
  1.3400e-08   -6.047e-07  
  1.3500e-08   -6.047e-07  
  1.3600e-08   -6.047e-07  
  1.3700e-08   -6.047e-07  
  1.3800e-08   -6.048e-07  
  1.3900e-08   -6.048e-07  
  1.4000e-08   -6.048e-07  
  1.4100e-08   -6.048e-07  
  1.4200e-08   -6.048e-07  
  1.4300e-08   -6.048e-07  
  1.4400e-08   -6.048e-07  
  1.4500e-08   -6.048e-07  
  1.4600e-08   -6.048e-07  
  1.4700e-08   -6.048e-07  
  1.4800e-08   -6.048e-07  
  1.4900e-08   -6.048e-07  
  1.5000e-08   -6.048e-07  
  1.5100e-08   -5.838e-07  
  1.5200e-08   -6.050e-07  
  1.5300e-08   -6.047e-07  
  1.5400e-08   -6.046e-07  
  1.5500e-08   -6.046e-07  
  1.5600e-08   -6.045e-07  
  1.5700e-08   -6.045e-07  
  1.5800e-08   -6.045e-07  
  1.5900e-08   -6.045e-07  
  1.6000e-08   -6.045e-07  
  1.6100e-08   -6.045e-07  
  1.6200e-08   -6.045e-07  
  1.6300e-08   -6.045e-07  
  1.6400e-08   -6.045e-07  
  1.6500e-08   -6.045e-07  
  1.6600e-08   -6.045e-07  
  1.6700e-08   -6.045e-07  
  1.6800e-08   -6.045e-07  
  1.6900e-08   -6.045e-07  
  1.7000e-08   -6.045e-07  
  1.7100e-08   -6.045e-07  
  1.7200e-08   -6.045e-07  
  1.7300e-08   -6.045e-07  
  1.7400e-08   -6.045e-07  
  1.7500e-08   -6.045e-07  
  1.7600e-08    8.801e-08  
  1.7700e-08   -2.600e-09  
  1.7800e-08   -2.393e-09  
  1.7900e-08   -2.293e-09  
  1.8000e-08   -2.052e-09  
  1.8100e-08   -2.133e-09  
  1.8200e-08   -2.236e-09  
  1.8300e-08   -2.285e-09  
  1.8400e-08   -2.211e-09  
  1.8500e-08   -2.138e-09  
  1.8600e-08   -2.064e-09  
  1.8700e-08   -1.990e-09  
  1.8800e-08   -2.005e-09  
  1.8900e-08   -2.046e-09  
  1.9000e-08   -2.086e-09  
  1.9100e-08   -2.127e-09  
  1.9200e-08   -2.168e-09  
  1.9300e-08   -2.209e-09  
  1.9400e-08   -2.250e-09  
  1.9500e-08   -2.270e-09  
  1.9600e-08   -2.209e-09  
  1.9700e-08   -2.148e-09  
  1.9800e-08   -2.088e-09  
  1.9900e-08   -2.027e-09  
  2.0000e-08   -1.966e-09  
  2.0100e-08    9.298e-08  
  2.0200e-08   -6.507e-09  
  2.0300e-08   -5.796e-09  
  2.0400e-08   -5.723e-09  
  2.0500e-08   -6.177e-09  
  2.0600e-08   -6.630e-09  
  2.0700e-08   -6.731e-09  
  2.0800e-08   -6.530e-09  
  2.0900e-08   -6.329e-09  
  2.1000e-08   -6.127e-09  
  2.1100e-08   -5.926e-09  
  2.1200e-08   -5.724e-09  
  2.1300e-08   -5.523e-09  
  2.1400e-08   -5.491e-09  
  2.1500e-08   -5.611e-09  
  2.1600e-08   -5.731e-09  
  2.1700e-08   -5.850e-09  
  2.1800e-08   -5.970e-09  
  2.1900e-08   -6.090e-09  
  2.2000e-08   -6.210e-09  
  2.2100e-08   -6.330e-09  
  2.2200e-08   -6.450e-09  
  2.2300e-08   -6.570e-09  
  2.2400e-08   -6.689e-09  
  2.2500e-08   -6.809e-09  
  2.2600e-08   -3.505e-06  
  2.2700e-08   -3.376e-06  
  2.2800e-08   -3.377e-06  
  2.2900e-08   -3.377e-06  
  2.3000e-08   -3.378e-06  
  2.3100e-08   -3.380e-06  
  2.3200e-08   -3.381e-06  
  2.3300e-08   -3.381e-06  
  2.3400e-08   -3.381e-06  
  2.3500e-08   -3.381e-06  
  2.3600e-08   -3.381e-06  
  2.3700e-08   -3.382e-06  
  2.3800e-08   -3.382e-06  
  2.3900e-08   -3.383e-06  
  2.4000e-08   -3.384e-06  
  2.4100e-08   -3.385e-06  
  2.4200e-08   -3.386e-06  
  2.4300e-08   -3.387e-06  
  2.4400e-08   -3.388e-06  
  2.4500e-08   -3.388e-06  
  2.4600e-08   -3.389e-06  
  2.4700e-08   -3.390e-06  
  2.4800e-08   -3.391e-06  
  2.4900e-08   -3.392e-06  
  2.5000e-08   -3.393e-06  
  2.5100e-08    5.756e-08  
  2.5200e-08   -5.941e-09  
  2.5300e-08   -6.681e-09  
  2.5400e-08   -5.626e-09  
  2.5500e-08   -5.231e-09  
  2.5600e-08   -5.684e-09  
  2.5700e-08   -6.137e-09  
  2.5800e-08   -6.590e-09  
  2.5900e-08   -7.043e-09  
  2.6000e-08   -7.061e-09  
  2.6100e-08   -6.888e-09  
  2.6200e-08   -6.715e-09  
  2.6300e-08   -6.542e-09  
  2.6400e-08   -6.368e-09  
  2.6500e-08   -6.195e-09  
  2.6600e-08   -6.022e-09  
  2.6700e-08   -5.848e-09  
  2.6800e-08   -5.675e-09  
  2.6900e-08   -5.502e-09  
  2.7000e-08   -5.329e-09  
  2.7100e-08   -5.155e-09  
  2.7200e-08   -5.247e-09  
  2.7300e-08   -5.888e-09  
  2.7400e-08   -6.530e-09  
  2.7500e-08   -7.172e-09  
  2.7600e-08    1.012e-07  
  2.7700e-08   -2.995e-09  
  2.7800e-08   -4.532e-09  
  2.7900e-08   -2.017e-09  
  2.8000e-08   -3.629e-09  
  2.8100e-08   -4.603e-09  
  2.8200e-08   -3.544e-09  
  2.8300e-08   -2.485e-09  
  2.8400e-08   -1.623e-09  
  2.8500e-08   -2.251e-09  
  2.8600e-08   -2.880e-09  
  2.8700e-08   -3.508e-09  
  2.8800e-08   -4.137e-09  
  2.8900e-08   -4.697e-09  
  2.9000e-08   -4.309e-09  
  2.9100e-08   -3.922e-09  
  2.9200e-08   -3.534e-09  
  2.9300e-08   -3.147e-09  
  2.9400e-08   -2.760e-09  
  2.9500e-08   -2.372e-09  
  2.9600e-08   -1.985e-09  
  2.9700e-08   -1.597e-09  
  2.9800e-08   -2.370e-09  
  2.9900e-08   -3.536e-09  
  3.0000e-08   -4.703e-09  
  3.0100e-08   -2.045e-09  
  3.0200e-08   -2.988e-09  
  3.0300e-08   -3.204e-09  
  3.0400e-08   -3.131e-09  
  3.0500e-08   -3.058e-09  
  3.0600e-08   -2.985e-09  
  3.0700e-08   -3.003e-09  
  3.0800e-08   -3.025e-09  
  3.0900e-08   -3.047e-09  
  3.1000e-08   -3.069e-09  
  3.1100e-08   -3.090e-09  
  3.1200e-08   -3.112e-09  
  3.1300e-08   -3.134e-09  
  3.1400e-08   -3.156e-09  
  3.1500e-08   -3.178e-09  
  3.1600e-08   -3.200e-09  
  3.1700e-08   -3.181e-09  
  3.1800e-08   -3.156e-09  
  3.1900e-08   -3.130e-09  
  3.2000e-08   -3.105e-09  
  3.2100e-08   -3.080e-09  
  3.2200e-08   -3.055e-09  
  3.2300e-08   -3.030e-09  
  3.2400e-08   -3.005e-09  
  3.2500e-08   -2.980e-09  
  3.2600e-08   -2.574e-09  
  3.2700e-08   -2.897e-09  
  3.2800e-08   -2.925e-09  
  3.2900e-08   -2.932e-09  
  3.3000e-08   -2.923e-09  
  3.3100e-08   -2.914e-09  
  3.3200e-08   -2.905e-09  
  3.3300e-08   -2.897e-09  
  3.3400e-08   -2.894e-09  
  3.3500e-08   -2.897e-09  
  3.3600e-08   -2.900e-09  
  3.3700e-08   -2.903e-09  
  3.3800e-08   -2.905e-09  
  3.3900e-08   -2.908e-09  
  3.4000e-08   -2.911e-09  
  3.4100e-08   -2.914e-09  
  3.4200e-08   -2.916e-09  
  3.4300e-08   -2.919e-09  
  3.4400e-08   -2.922e-09  
  3.4500e-08   -2.925e-09  
  3.4600e-08   -2.927e-09  
  3.4700e-08   -2.930e-09  
  3.4800e-08   -2.933e-09  
  3.4900e-08   -2.936e-09  
  3.5000e-08   -2.939e-09  
  3.5100e-08   -2.936e-09  
  3.5200e-08   -2.934e-09  
  3.5300e-08   -2.932e-09  
  3.5400e-08   -2.930e-09  
  3.5500e-08   -2.928e-09  
  3.5600e-08   -2.926e-09  
  3.5700e-08   -2.924e-09  
  3.5800e-08   -2.922e-09  
  3.5900e-08   -2.920e-09  
  3.6000e-08   -2.918e-09  
  3.6100e-08   -2.918e-09  
  3.6200e-08   -2.918e-09  
  3.6300e-08   -2.918e-09  
  3.6400e-08   -2.918e-09  
  3.6500e-08   -2.918e-09  
  3.6600e-08   -2.919e-09  
  3.6700e-08   -2.919e-09  
  3.6800e-08   -2.919e-09  
  3.6900e-08   -2.919e-09  
  3.7000e-08   -2.919e-09  
  3.7100e-08   -2.919e-09  
  3.7200e-08   -2.919e-09  
  3.7300e-08   -2.920e-09  
  3.7400e-08   -2.920e-09  
  3.7500e-08   -2.920e-09  
  3.7600e-08   -2.920e-09  
  3.7700e-08   -2.920e-09  
  3.7800e-08   -2.920e-09  
  3.7900e-08   -2.920e-09  
  3.8000e-08   -2.921e-09  
  3.8100e-08   -2.921e-09  
  3.8200e-08   -2.921e-09  
  3.8300e-08   -2.921e-09  
  3.8400e-08   -2.921e-09  
  3.8500e-08   -2.921e-09  
  3.8600e-08   -2.921e-09  
  3.8700e-08   -2.922e-09  
  3.8800e-08   -2.922e-09  
  3.8900e-08   -2.922e-09  
  3.9000e-08   -2.922e-09  
  3.9100e-08   -2.922e-09  
  3.9200e-08   -2.922e-09  
  3.9300e-08   -2.923e-09  
  3.9400e-08   -2.923e-09  
  3.9500e-08   -2.923e-09  
  3.9600e-08   -2.923e-09  
  3.9700e-08   -2.923e-09  
  3.9800e-08   -2.923e-09  
  3.9900e-08   -2.923e-09  
  4.0000e-08   -2.924e-09  
y
-----------------------------------------------

          ***** job concluded
1****** HSPICE -- H-2013.03 64-BIT (Mar  7 2013) win64 ******                   
 ******  
 'inverter'

  ******  job statistics summary tnom=  25.000 temp=  25.000 *****

  ******  HSPICE Threads Information  ******

  Command Line Threads Count :     1
  Available CPU Count        :     4
  Actual Threads Count       :     1


  ******  Circuit Statistics  ******
  # nodes       =     520 # elements   =    1178
  # resistors   =     217 # capacitors =     523 # inductors   =       0
  # mutual_inds =       0 # vccs       =     144 # vcvs        =     252
  # cccs        =       0 # ccvs       =       0 # volt_srcs   =      42
  # curr_srcs   =       0 # diodes     =       0 # bjts        =       0
  # jfets       =       0 # mosfets    =       0 # U elements  =       0
  # T elements  =       0 # W elements =       0 # B elements  =       0
  # S elements  =       0 # P elements =       0 # va device   =       0
  # vector_srcs =       0 # N elements =       0


  ******  Runtime Statistics (seconds)  ******

  analysis           time    # points   tot. iter  conv.iter
  op point           0.65           1          26
  transient         15.25         401         694         211 rev=        15
  readin             0.05
  errchk             0.29
  setup              0.01
  output             0.00


           peak memory used         52.78 megabytes
           total cpu time           16.26 seconds
           total elapsed time       16.28 seconds
           job started at     21:15:51 02/26/2018
           job ended   at     21:16:07 02/26/2018


  lic: Release hspice token(s) 
 lic: total license checkout elapse time:        0.02(s)
