 ****** HSPICE -- H-2013.03 64-BIT (Mar  7 2013) win64 ******                   
  Copyright (C) 2013 Synopsys, Inc. All Rights Reserved.                        
  Unpublished-rights reserved under US copyright laws.
  This program is protected by law and is subject to the
  terms and conditions of the license agreement from Synopsys.
  Use of this program is your acceptance to be bound by the
  license agreement. HSPICE is the trademark of Synopsys, Inc.
  Input File: sram22read.sp                                                     
  Command line options: -i sram22read.sp -o sram22read.lis
  lic:  
  lic: FLEXlm: v10.9.8 
  lic: USER:   Dell                 HOSTNAME: DESKTOP-O3DHVG1 
  lic: HOSTID: "28f10e041fd4 a0d37a293ca4 a0d37a293ca5" PID:      13000 
  lic: Using FLEXlm license file: 
  lic: C:\synopsys\Hspice_H-2013.03\lic.dat\lic.lic 
  lic: Checkout 1 hspice 
  lic: License/Maintenance for hspice will expire on 31-dec-2019/2019.12 
  lic: NODE LOCKED license on hostid "28f10e041fd4 a0d37a293ca4 a0d37a293ca5" 
  lic:   
 Init: read install configuration file: C:\synopsys\Hspice_H-2013.03\meta.cfg
 scientific notation:
 a=10**-18  f=10**-15  p=10**-12  n=10**-9  u=10**-6
 m=10**-3   k=10**3    x=10**6    g=10**9 
1****** HSPICE -- H-2013.03 64-BIT (Mar  7 2013) win64 ******                   
 ******  
 'inverter'

  ******  circuit name directory
 circuit number to circuit name directory
   number circuitname                     definition         multiplier
        0 main circuit


 circuit parameter definitions
  parameter          =  value 

     0:temp                                                    = 2.700e+01      
     0:m_cnt                                                   = 1.000e+00      
     0:wg                                                      = 4.000e-09      
     0:cb                                                      = 4.000e-11      
     0:lg                                                      = 3.200e-08      
     0:lgef                                                    = 1.000e-07      
     0:vfn                                                     = 0.000e+00      
     0:vfp                                                     = 0.000e+00      
     0:m                                                       = 0.000e+00      
     0:n                                                       = 1.900e+01      
     0:hox                                                     = 4.000e-09      
     1:tox                                                     = 4.000e-09      
     1:csub                                                    = 4.000e-11      
     1:pitch                                                   = 2.000e-08      
     1:n1                                                      = 0.000e+00      
     1:n2                                                      = 1.900e+01      
     1:vfbp                                                    = 0.000e+00      
     1:kgate                                                   = 1.600e+01      
     1:dout                                                    = 0.000e+00      
     1:sout                                                    = 0.000e+00      
     1:tubes                                                   = 1.000e+00      
     1:lch                                                     = 3.200e-08      
     1:lgeff                                                   = 1.000e-07      
     1:lss                                                     = 3.200e-08      
     1:ldd                                                     = 3.200e-08      
     2:tox                                                     = 4.000e-09      
     2:csub                                                    = 4.000e-11      
     2:pitch                                                   = 2.000e-08      
     2:n1                                                      = 0.000e+00      
     2:n2                                                      = 1.000e+01      
     2:vfbp                                                    = 0.000e+00      
     2:kgate                                                   = 1.600e+01      
     2:dout                                                    = 0.000e+00      
     2:sout                                                    = 0.000e+00      
     2:tubes                                                   = 1.000e+00      
     2:lch                                                     = 3.200e-08      
     2:lgeff                                                   = 1.000e-07      
     2:lss                                                     = 3.200e-08      
     2:ldd                                                     = 3.200e-08      
     3:tox                                                     = 4.000e-09      
     3:csub                                                    = 4.000e-11      
     3:pitch                                                   = 2.000e-08      
     3:n1                                                      = 0.000e+00      
     3:n2                                                      = 1.300e+01      
     3:vfbp                                                    = 0.000e+00      
     3:kgate                                                   = 1.600e+01      
     3:dout                                                    = 0.000e+00      
     3:sout                                                    = 0.000e+00      
     3:tubes                                                   = 1.000e+00      
     3:lch                                                     = 3.200e-08      
     3:lgeff                                                   = 1.000e-07      
     3:lss                                                     = 3.200e-08      
     3:ldd                                                     = 3.200e-08      
     4:tox                                                     = 4.000e-09      
     4:csub                                                    = 4.000e-11      
     4:vfbn                                                    = 0.000e+00      
     4:pitch                                                   = 2.000e-08      
     4:n1                                                      = 0.000e+00      
     4:n2                                                      = 1.300e+01      
     4:kgate                                                   = 1.600e+01      
     4:dout                                                    = 0.000e+00      
     4:sout                                                    = 0.000e+00      
     4:tubes                                                   = 1.000e+00      
     4:lch                                                     = 3.200e-08      
     4:lgeff                                                   = 1.000e-07      
     4:lss                                                     = 3.200e-08      
     4:ldd                                                     = 3.200e-08      
     5:tox                                                     = 4.000e-09      
     5:csub                                                    = 4.000e-11      
     5:vfbn                                                    = 0.000e+00      
     5:pitch                                                   = 2.000e-08      
     5:n1                                                      = 0.000e+00      
     5:n2                                                      = 1.900e+01      
     5:kgate                                                   = 1.600e+01      
     5:dout                                                    = 0.000e+00      
     5:sout                                                    = 0.000e+00      
     5:tubes                                                   = 1.000e+00      
     5:lch                                                     = 3.200e-08      
     5:lgeff                                                   = 1.000e-07      
     5:lss                                                     = 3.200e-08      
     5:ldd                                                     = 3.200e-08      
     6:tox                                                     = 4.000e-09      
     6:csub                                                    = 4.000e-11      
     6:vfbn                                                    = 0.000e+00      
     6:pitch                                                   = 2.000e-08      
     6:n1                                                      = 0.000e+00      
     6:n2                                                      = 1.000e+01      
     6:kgate                                                   = 1.600e+01      
     6:dout                                                    = 0.000e+00      
     6:sout                                                    = 0.000e+00      
     6:tubes                                                   = 1.000e+00      
     6:lch                                                     = 3.200e-08      
     6:lgeff                                                   = 1.000e-07      
     6:lss                                                     = 3.200e-08      
     6:ldd                                                     = 3.200e-08      




 constants  - tnom         kt           vt           gapsi        ni
            2.9815e+02   4.1163e-21   2.5692e-02   1.1156e+00   1.2565e+16 
  **info** (sram22read.sp:130) DC voltage reset to initial transient source value              in source        0:vrwl                new dc=  0.0000D+00

 **warning**  associated with encrypted block(s) were suppressed due to encrypted content

1****** HSPICE -- H-2013.03 64-BIT (Mar  7 2013) win64 ******                   
 ******  
 'inverter'

  ******  circuit element summary tnom=  25.000 temp=  25.000 *****


 **** independent sources

     name         node1        node2      dc volt    ac mag    ac phase    type
  vdd  vdd               0                  9.000e-01  0.000e+00  0.000e+00 dc   
  vrwl  rwl               0                  0.000e+00  0.000e+00  0.000e+00 pwl  
                time        value

                 0.000e+00    0.000e+00
                 1.250e-08    0.000e+00
                 1.260e-08    9.000e-01
                 1.500e-08    9.000e-01
                 1.510e-08    0.000e+00
                 2.250e-08    0.000e+00
                 2.260e-08    9.000e-01
                 2.500e-08    9.000e-01
                 2.510e-08    0.000e+00
                 3.250e-08    0.000e+00
                 3.260e-08    9.000e-01
                 3.500e-08    9.000e-01


  vrwlb  rwlb              0                  9.000e-01  0.000e+00  0.000e+00 pwl  
                time        value

                 0.000e+00    9.000e-01
                 1.250e-08    9.000e-01
                 1.260e-08    0.000e+00
                 1.500e-08    0.000e+00
                 1.510e-08    9.000e-01
                 2.250e-08    9.000e-01
                 2.260e-08    0.000e+00
                 2.500e-08    0.000e+00
                 2.510e-08    9.000e-01
                 3.250e-08    9.000e-01
                 3.260e-08    0.000e+00
                 3.500e-08    0.000e+00


  vwbl  wbl               0                  0.000e+00  0.000e+00  0.000e+00 pwl  
                time        value

                 0.000e+00    0.000e+00
                 5.000e-09    0.000e+00
                 5.100e-09    4.500e-01
                 1.000e-08    4.500e-01
                 1.010e-08    0.000e+00
                 1.500e-08    0.000e+00
                 1.510e-08    9.000e-01
                 2.000e-08    9.000e-01
                 2.010e-08    0.000e+00
                 3.000e-08    0.000e+00
                 4.000e-08    0.000e+00


  vwwl  wwl               0                  0.000e+00  0.000e+00  0.000e+00 pwl  
                time        value

                 0.000e+00    0.000e+00
                 7.500e-09    0.000e+00
                 7.600e-09    9.000e-01
                 1.000e-08    9.000e-01
                 1.010e-08    0.000e+00
                 1.750e-08    0.000e+00
                 1.760e-08    9.000e-01
                 2.000e-08    9.000e-01
                 2.010e-08    0.000e+00
                 2.750e-08    0.000e+00
                 2.760e-08    9.000e-01
                 3.000e-08    9.000e-01
                 3.010e-08    0.000e+00
                 4.000e-08    0.000e+00


  vwwlb  wwlb              0                  9.000e-01  0.000e+00  0.000e+00 pwl  
                time        value

                 0.000e+00    9.000e-01
                 7.500e-09    9.000e-01
                 7.600e-09    0.000e+00
                 1.000e-08    0.000e+00
                 1.010e-08    9.000e-01
                 1.750e-08    9.000e-01
                 1.760e-08    0.000e+00
                 2.000e-08    0.000e+00
                 2.010e-08    9.000e-01
                 2.750e-08    9.000e-01
                 2.760e-08    0.000e+00
                 3.000e-08    0.000e+00
                 3.010e-08    9.000e-01
                 4.000e-08    9.000e-01




 **** subcircuit calls
    name        subcircuit         external nodes


         0:xcnt7    pcnfet          0:vdd         0:q           0:n2      
                               0:n2      


         0:xcnt8    pcnfet          0:vdd         0:q           0:qb      
                               0:qb      


         0:xcnt6    pcnfet          0:qb          0:qb          0:n2      
                               0:n2      


         0:xcnt5    ncnfet          0:qb          0:qb          0:n1      
                               0:n1      


         0:xcnt3    ncnfet          0:n1          0:q           0:0       
                               0:0       


         0:xcnt4    ncnfet          0:qb          0:q           0:0       
                               0:0       


         0:xcnt14   pcnfet          0:vdd         0:qb          0:q       
                               0:q       


         0:xcnt13   pcnfet          0:vdd         0:qb          0:n4      
                               0:n4      


         0:xcnt12   pcnfet          0:q           0:q           0:n4      
                               0:n4      


         0:xcnt11   ncnfet          0:q           0:q           0:n3      
                               0:n3      


         0:xcnt10   ncnfet          0:q           0:qb          0:0       
                               0:0       


         0:xcnt9    ncnfet          0:n3          0:qb          0:0       
                               0:0       


         0:xcnt2    pcnfet          0:q           0:wwlb        0:wbl     
                               0:wbl     


         0:xcnt1    ncnfet          0:wbl         0:wwl         0:q       
                               0:q       


         0:xcnt16   pcnfet          0:vdd         0:qb          0:n5      
                               0:n5      


         0:xcnt15   ncnfet          0:n5          0:qb          0:0       
                               0:0       


         0:xcnt18   pcnfet          0:rbl         0:rwlb        0:n5      
                               0:n5      


         0:xcnt17   ncnfet          0:n5          0:rwl         0:rbl     
                               0:rbl     


  
1****** HSPICE -- H-2013.03 64-BIT (Mar  7 2013) win64 ******                   
 ******  
 'inverter'

  ******  element node table
                                                                                      
 0                vdd              vrwl             vrwlb            vwbl             
                  vwwl             vwwlb                                              
 rbl              ic1                                                                 
 rwl              vrwl                                                                
 rwlb             vrwlb                                                               
 vdd              vdd                                                                 
 wbl              vwbl                                                                
 wwl              vwwl                                                                
 wwlb             vwwlb                                                               
  **warning** PIVOT option setting is simplified, pivot = 13 is obsolete,
              automatically switch to pivot = 1.
 *****************************************************************
 ******  option summary
 ******
 runlvl  = 3         bypass  = 2         
  Opening plot unit= 79
 file=sram22read.pa0

 no convergence with standard algorithm,  trying damped pseudo-transient

  *** initial damped pseudo transient completed. ***
  *** final try started ***
  *** final try succeeded *** 
1****** HSPICE -- H-2013.03 64-BIT (Mar  7 2013) win64 ******                   
 ******  
 'inverter'

  ******  operating point information tnom=  25.000 temp=  25.000 *****
 ***** operating point status is voltage   simulation time is   0.000e+00
     node    =voltage       node    =voltage       node    =voltage

 + 0:n1      = 1.083e-02  0:n2      = 8.891e-01  0:n3      = 1.081e-02
 + 0:n4      = 8.891e-01  0:n5      = 8.571e-03  0:q       = 4.496e-01
 + 0:qb      = 4.497e-01  0:rbl     = 4.500e-01  0:rwl     = 0.000e+00
 + 0:rwlb    = 9.000e-01  0:vdd     = 9.000e-01  0:wbl     = 0.000e+00
 + 0:wwl     = 0.000e+00  0:wwlb    = 9.000e-01

 ******  
 'inverter'

  ******  transient analysis tnom=  25.000 temp=  25.000 *****
x

        time    voltage      voltage      voltage      voltage    
                     q           qb           rwl         rwlb    
  0.0000e+00    4.496e-01    4.497e-01    0.000e+00    9.000e-01  
  1.0000e-10    4.496e-01    4.497e-01    0.000e+00    9.000e-01  
  2.0000e-10    4.496e-01    4.497e-01    0.000e+00    9.000e-01  
  3.0000e-10    4.496e-01    4.497e-01    0.000e+00    9.000e-01  
  4.0000e-10    4.496e-01    4.497e-01    0.000e+00    9.000e-01  
  5.0000e-10    4.496e-01    4.497e-01    0.000e+00    9.000e-01  
  6.0000e-10    4.496e-01    4.497e-01    0.000e+00    9.000e-01  
  7.0000e-10    4.496e-01    4.497e-01    0.000e+00    9.000e-01  
  8.0000e-10    4.496e-01    4.497e-01    0.000e+00    9.000e-01  
  9.0000e-10    4.496e-01    4.497e-01    0.000e+00    9.000e-01  
  1.0000e-09    4.496e-01    4.497e-01    0.000e+00    9.000e-01  
  1.1000e-09    4.496e-01    4.497e-01    0.000e+00    9.000e-01  
  1.2000e-09    4.496e-01    4.497e-01    0.000e+00    9.000e-01  
  1.3000e-09    4.496e-01    4.497e-01    0.000e+00    9.000e-01  
  1.4000e-09    4.496e-01    4.497e-01    0.000e+00    9.000e-01  
  1.5000e-09    4.496e-01    4.497e-01    0.000e+00    9.000e-01  
  1.6000e-09    4.496e-01    4.497e-01    0.000e+00    9.000e-01  
  1.7000e-09    4.496e-01    4.497e-01    0.000e+00    9.000e-01  
  1.8000e-09    4.496e-01    4.497e-01    0.000e+00    9.000e-01  
  1.9000e-09    4.496e-01    4.497e-01    0.000e+00    9.000e-01  
  2.0000e-09    4.496e-01    4.497e-01    0.000e+00    9.000e-01  
  2.1000e-09    4.496e-01    4.497e-01    0.000e+00    9.000e-01  
  2.2000e-09    4.496e-01    4.497e-01    0.000e+00    9.000e-01  
  2.3000e-09    4.496e-01    4.497e-01    0.000e+00    9.000e-01  
  2.4000e-09    4.496e-01    4.497e-01    0.000e+00    9.000e-01  
  2.5000e-09    4.496e-01    4.497e-01    0.000e+00    9.000e-01  
  2.6000e-09    4.496e-01    4.497e-01    0.000e+00    9.000e-01  
  2.7000e-09    4.496e-01    4.497e-01    0.000e+00    9.000e-01  
  2.8000e-09    4.496e-01    4.497e-01    0.000e+00    9.000e-01  
  2.9000e-09    4.496e-01    4.497e-01    0.000e+00    9.000e-01  
  3.0000e-09    4.496e-01    4.497e-01    0.000e+00    9.000e-01  
  3.1000e-09    4.496e-01    4.497e-01    0.000e+00    9.000e-01  
  3.2000e-09    4.496e-01    4.497e-01    0.000e+00    9.000e-01  
  3.3000e-09    4.496e-01    4.497e-01    0.000e+00    9.000e-01  
  3.4000e-09    4.496e-01    4.497e-01    0.000e+00    9.000e-01  
  3.5000e-09    4.496e-01    4.497e-01    0.000e+00    9.000e-01  
  3.6000e-09    4.496e-01    4.497e-01    0.000e+00    9.000e-01  
  3.7000e-09    4.496e-01    4.497e-01    0.000e+00    9.000e-01  
  3.8000e-09    4.496e-01    4.497e-01    0.000e+00    9.000e-01  
  3.9000e-09    4.496e-01    4.497e-01    0.000e+00    9.000e-01  
  4.0000e-09    4.496e-01    4.497e-01    0.000e+00    9.000e-01  
  4.1000e-09    4.496e-01    4.497e-01    0.000e+00    9.000e-01  
  4.2000e-09    4.496e-01    4.497e-01    0.000e+00    9.000e-01  
  4.3000e-09    4.496e-01    4.497e-01    0.000e+00    9.000e-01  
  4.4000e-09    4.496e-01    4.497e-01    0.000e+00    9.000e-01  
  4.5000e-09    4.496e-01    4.497e-01    0.000e+00    9.000e-01  
  4.6000e-09    4.496e-01    4.497e-01    0.000e+00    9.000e-01  
  4.7000e-09    4.496e-01    4.497e-01    0.000e+00    9.000e-01  
  4.8000e-09    4.496e-01    4.497e-01    0.000e+00    9.000e-01  
  4.9000e-09    4.496e-01    4.497e-01    0.000e+00    9.000e-01  
  5.0000e-09    4.496e-01    4.497e-01    0.000e+00    9.000e-01  
  5.1000e-09    4.512e-01    4.496e-01    0.000e+00    9.000e-01  
  5.2000e-09    4.497e-01    4.497e-01    0.000e+00    9.000e-01  
  5.3000e-09    4.497e-01    4.497e-01    0.000e+00    9.000e-01  
  5.4000e-09    4.497e-01    4.497e-01    0.000e+00    9.000e-01  
  5.5000e-09    4.497e-01    4.497e-01    0.000e+00    9.000e-01  
  5.6000e-09    4.497e-01    4.497e-01    0.000e+00    9.000e-01  
  5.7000e-09    4.497e-01    4.497e-01    0.000e+00    9.000e-01  
  5.8000e-09    4.497e-01    4.497e-01    0.000e+00    9.000e-01  
  5.9000e-09    4.497e-01    4.497e-01    0.000e+00    9.000e-01  
  6.0000e-09    4.497e-01    4.497e-01    0.000e+00    9.000e-01  
  6.1000e-09    4.497e-01    4.497e-01    0.000e+00    9.000e-01  
  6.2000e-09    4.497e-01    4.497e-01    0.000e+00    9.000e-01  
  6.3000e-09    4.497e-01    4.497e-01    0.000e+00    9.000e-01  
  6.4000e-09    4.497e-01    4.497e-01    0.000e+00    9.000e-01  
  6.5000e-09    4.497e-01    4.497e-01    0.000e+00    9.000e-01  
  6.6000e-09    4.497e-01    4.497e-01    0.000e+00    9.000e-01  
  6.7000e-09    4.497e-01    4.497e-01    0.000e+00    9.000e-01  
  6.8000e-09    4.497e-01    4.497e-01    0.000e+00    9.000e-01  
  6.9000e-09    4.497e-01    4.497e-01    0.000e+00    9.000e-01  
  7.0000e-09    4.497e-01    4.497e-01    0.000e+00    9.000e-01  
  7.1000e-09    4.497e-01    4.497e-01    0.000e+00    9.000e-01  
  7.2000e-09    4.497e-01    4.497e-01    0.000e+00    9.000e-01  
  7.3000e-09    4.497e-01    4.497e-01    0.000e+00    9.000e-01  
  7.4000e-09    4.497e-01    4.497e-01    0.000e+00    9.000e-01  
  7.5000e-09    4.497e-01    4.497e-01    0.000e+00    9.000e-01  
  7.6000e-09    4.506e-01    4.495e-01    0.000e+00    9.000e-01  
  7.7000e-09    4.499e-01    4.496e-01    0.000e+00    9.000e-01  
  7.8000e-09    4.500e-01    4.497e-01    0.000e+00    9.000e-01  
  7.9000e-09    4.500e-01    4.496e-01    0.000e+00    9.000e-01  
  8.0000e-09    4.499e-01    4.496e-01    0.000e+00    9.000e-01  
  8.1000e-09    4.499e-01    4.496e-01    0.000e+00    9.000e-01  
  8.2000e-09    4.499e-01    4.496e-01    0.000e+00    9.000e-01  
  8.3000e-09    4.499e-01    4.496e-01    0.000e+00    9.000e-01  
  8.4000e-09    4.499e-01    4.496e-01    0.000e+00    9.000e-01  
  8.5000e-09    4.499e-01    4.496e-01    0.000e+00    9.000e-01  
  8.6000e-09    4.499e-01    4.496e-01    0.000e+00    9.000e-01  
  8.7000e-09    4.499e-01    4.496e-01    0.000e+00    9.000e-01  
  8.8000e-09    4.499e-01    4.496e-01    0.000e+00    9.000e-01  
  8.9000e-09    4.499e-01    4.496e-01    0.000e+00    9.000e-01  
  9.0000e-09    4.499e-01    4.496e-01    0.000e+00    9.000e-01  
  9.1000e-09    4.500e-01    4.496e-01    0.000e+00    9.000e-01  
  9.2000e-09    4.500e-01    4.496e-01    0.000e+00    9.000e-01  
  9.3000e-09    4.500e-01    4.497e-01    0.000e+00    9.000e-01  
  9.4000e-09    4.500e-01    4.497e-01    0.000e+00    9.000e-01  
  9.5000e-09    4.500e-01    4.497e-01    0.000e+00    9.000e-01  
  9.6000e-09    4.500e-01    4.497e-01    0.000e+00    9.000e-01  
  9.7000e-09    4.500e-01    4.496e-01    0.000e+00    9.000e-01  
  9.8000e-09    4.499e-01    4.496e-01    0.000e+00    9.000e-01  
  9.9000e-09    4.499e-01    4.496e-01    0.000e+00    9.000e-01  
  1.0000e-08    4.499e-01    4.496e-01    0.000e+00    9.000e-01  
  1.0100e-08    4.465e-01    4.498e-01    0.000e+00    9.000e-01  
  1.0200e-08    4.496e-01    4.497e-01    0.000e+00    9.000e-01  
  1.0300e-08    4.496e-01    4.497e-01    0.000e+00    9.000e-01  
  1.0400e-08    4.496e-01    4.497e-01    0.000e+00    9.000e-01  
  1.0500e-08    4.496e-01    4.497e-01    0.000e+00    9.000e-01  
  1.0600e-08    4.496e-01    4.497e-01    0.000e+00    9.000e-01  
  1.0700e-08    4.496e-01    4.497e-01    0.000e+00    9.000e-01  
  1.0800e-08    4.496e-01    4.497e-01    0.000e+00    9.000e-01  
  1.0900e-08    4.496e-01    4.497e-01    0.000e+00    9.000e-01  
  1.1000e-08    4.496e-01    4.497e-01    0.000e+00    9.000e-01  
  1.1100e-08    4.496e-01    4.497e-01    0.000e+00    9.000e-01  
  1.1200e-08    4.496e-01    4.497e-01    0.000e+00    9.000e-01  
  1.1300e-08    4.496e-01    4.497e-01    0.000e+00    9.000e-01  
  1.1400e-08    4.496e-01    4.497e-01    0.000e+00    9.000e-01  
  1.1500e-08    4.496e-01    4.497e-01    0.000e+00    9.000e-01  
  1.1600e-08    4.496e-01    4.497e-01    0.000e+00    9.000e-01  
  1.1700e-08    4.496e-01    4.497e-01    0.000e+00    9.000e-01  
  1.1800e-08    4.496e-01    4.497e-01    0.000e+00    9.000e-01  
  1.1900e-08    4.496e-01    4.497e-01    0.000e+00    9.000e-01  
  1.2000e-08    4.496e-01    4.497e-01    0.000e+00    9.000e-01  
  1.2100e-08    4.496e-01    4.497e-01    0.000e+00    9.000e-01  
  1.2200e-08    4.496e-01    4.497e-01    0.000e+00    9.000e-01  
  1.2300e-08    4.496e-01    4.497e-01    0.000e+00    9.000e-01  
  1.2400e-08    4.496e-01    4.497e-01    0.000e+00    9.000e-01  
  1.2500e-08    4.496e-01    4.497e-01    0.000e+00    9.000e-01  
  1.2600e-08    4.495e-01    4.499e-01    9.000e-01    0.000e+00  
  1.2700e-08    4.496e-01    4.496e-01    9.000e-01    0.000e+00  
  1.2800e-08    4.496e-01    4.496e-01    9.000e-01    0.000e+00  
  1.2900e-08    4.496e-01    4.496e-01    9.000e-01    0.000e+00  
  1.3000e-08    4.496e-01    4.496e-01    9.000e-01    0.000e+00  
  1.3100e-08    4.496e-01    4.496e-01    9.000e-01    0.000e+00  
  1.3200e-08    4.496e-01    4.496e-01    9.000e-01    0.000e+00  
  1.3300e-08    4.496e-01    4.496e-01    9.000e-01    0.000e+00  
  1.3400e-08    4.496e-01    4.496e-01    9.000e-01    0.000e+00  
  1.3500e-08    4.496e-01    4.496e-01    9.000e-01    0.000e+00  
  1.3600e-08    4.496e-01    4.496e-01    9.000e-01    0.000e+00  
  1.3700e-08    4.496e-01    4.496e-01    9.000e-01    0.000e+00  
  1.3800e-08    4.496e-01    4.496e-01    9.000e-01    0.000e+00  
  1.3900e-08    4.496e-01    4.496e-01    9.000e-01    0.000e+00  
  1.4000e-08    4.496e-01    4.496e-01    9.000e-01    0.000e+00  
  1.4100e-08    4.496e-01    4.496e-01    9.000e-01    0.000e+00  
  1.4200e-08    4.496e-01    4.496e-01    9.000e-01    0.000e+00  
  1.4300e-08    4.496e-01    4.496e-01    9.000e-01    0.000e+00  
  1.4400e-08    4.496e-01    4.496e-01    9.000e-01    0.000e+00  
  1.4500e-08    4.496e-01    4.496e-01    9.000e-01    0.000e+00  
  1.4600e-08    4.496e-01    4.496e-01    9.000e-01    0.000e+00  
  1.4700e-08    4.496e-01    4.496e-01    9.000e-01    0.000e+00  
  1.4800e-08    4.496e-01    4.497e-01    9.000e-01    0.000e+00  
  1.4900e-08    4.496e-01    4.497e-01    9.000e-01    0.000e+00  
  1.5000e-08    4.496e-01    4.497e-01    9.000e-01    0.000e+00  
  1.5100e-08    4.527e-01    4.503e-01    0.000e+00    9.000e-01  
  1.5200e-08    4.497e-01    4.497e-01    0.000e+00    9.000e-01  
  1.5300e-08    4.497e-01    4.497e-01    0.000e+00    9.000e-01  
  1.5400e-08    4.497e-01    4.497e-01    0.000e+00    9.000e-01  
  1.5500e-08    4.497e-01    4.497e-01    0.000e+00    9.000e-01  
  1.5600e-08    4.497e-01    4.497e-01    0.000e+00    9.000e-01  
  1.5700e-08    4.497e-01    4.497e-01    0.000e+00    9.000e-01  
  1.5800e-08    4.497e-01    4.497e-01    0.000e+00    9.000e-01  
  1.5900e-08    4.497e-01    4.497e-01    0.000e+00    9.000e-01  
  1.6000e-08    4.497e-01    4.497e-01    0.000e+00    9.000e-01  
  1.6100e-08    4.497e-01    4.497e-01    0.000e+00    9.000e-01  
  1.6200e-08    4.497e-01    4.497e-01    0.000e+00    9.000e-01  
  1.6300e-08    4.497e-01    4.497e-01    0.000e+00    9.000e-01  
  1.6400e-08    4.497e-01    4.497e-01    0.000e+00    9.000e-01  
  1.6500e-08    4.497e-01    4.497e-01    0.000e+00    9.000e-01  
  1.6600e-08    4.497e-01    4.497e-01    0.000e+00    9.000e-01  
  1.6700e-08    4.497e-01    4.497e-01    0.000e+00    9.000e-01  
  1.6800e-08    4.497e-01    4.497e-01    0.000e+00    9.000e-01  
  1.6900e-08    4.497e-01    4.497e-01    0.000e+00    9.000e-01  
  1.7000e-08    4.497e-01    4.497e-01    0.000e+00    9.000e-01  
  1.7100e-08    4.497e-01    4.497e-01    0.000e+00    9.000e-01  
  1.7200e-08    4.497e-01    4.497e-01    0.000e+00    9.000e-01  
  1.7300e-08    4.497e-01    4.497e-01    0.000e+00    9.000e-01  
  1.7400e-08    4.497e-01    4.497e-01    0.000e+00    9.000e-01  
  1.7500e-08    4.497e-01    4.497e-01    0.000e+00    9.000e-01  
  1.7600e-08    9.000e-01    3.424e-05    0.000e+00    9.000e-01  
  1.7700e-08    9.000e-01    1.543e-04    0.000e+00    9.000e-01  
  1.7800e-08    9.000e-01    1.243e-04    0.000e+00    9.000e-01  
  1.7900e-08    9.000e-01    1.233e-04    0.000e+00    9.000e-01  
  1.8000e-08    9.000e-01    1.206e-04    0.000e+00    9.000e-01  
  1.8100e-08    9.000e-01    1.147e-04    0.000e+00    9.000e-01  
  1.8200e-08    9.000e-01    1.101e-04    0.000e+00    9.000e-01  
  1.8300e-08    9.000e-01    1.120e-04    0.000e+00    9.000e-01  
  1.8400e-08    9.000e-01    1.139e-04    0.000e+00    9.000e-01  
  1.8500e-08    9.000e-01    1.159e-04    0.000e+00    9.000e-01  
  1.8600e-08    9.000e-01    1.170e-04    0.000e+00    9.000e-01  
  1.8700e-08    9.000e-01    1.156e-04    0.000e+00    9.000e-01  
  1.8800e-08    9.000e-01    1.141e-04    0.000e+00    9.000e-01  
  1.8900e-08    9.000e-01    1.127e-04    0.000e+00    9.000e-01  
  1.9000e-08    9.000e-01    1.113e-04    0.000e+00    9.000e-01  
  1.9100e-08    9.000e-01    1.098e-04    0.000e+00    9.000e-01  
  1.9200e-08    9.000e-01    1.084e-04    0.000e+00    9.000e-01  
  1.9300e-08    9.000e-01    1.086e-04    0.000e+00    9.000e-01  
  1.9400e-08    9.000e-01    1.099e-04    0.000e+00    9.000e-01  
  1.9500e-08    9.000e-01    1.111e-04    0.000e+00    9.000e-01  
  1.9600e-08    9.000e-01    1.123e-04    0.000e+00    9.000e-01  
  1.9700e-08    9.000e-01    1.135e-04    0.000e+00    9.000e-01  
  1.9800e-08    9.000e-01    1.147e-04    0.000e+00    9.000e-01  
  1.9900e-08    9.000e-01    1.159e-04    0.000e+00    9.000e-01  
  2.0000e-08    9.000e-01    1.172e-04    0.000e+00    9.000e-01  
  2.0100e-08    9.063e-01   -1.020e-03    0.000e+00    9.000e-01  
  2.0200e-08    8.998e-01    1.237e-04    0.000e+00    9.000e-01  
  2.0300e-08    8.998e-01    1.050e-04    0.000e+00    9.000e-01  
  2.0400e-08    8.998e-01    9.904e-05    0.000e+00    9.000e-01  
  2.0500e-08    8.998e-01    1.114e-04    0.000e+00    9.000e-01  
  2.0600e-08    8.997e-01    1.238e-04    0.000e+00    9.000e-01  
  2.0700e-08    8.997e-01    1.332e-04    0.000e+00    9.000e-01  
  2.0800e-08    8.997e-01    1.278e-04    0.000e+00    9.000e-01  
  2.0900e-08    8.998e-01    1.225e-04    0.000e+00    9.000e-01  
  2.1000e-08    8.998e-01    1.171e-04    0.000e+00    9.000e-01  
  2.1100e-08    8.998e-01    1.118e-04    0.000e+00    9.000e-01  
  2.1200e-08    8.998e-01    1.064e-04    0.000e+00    9.000e-01  
  2.1300e-08    8.998e-01    1.011e-04    0.000e+00    9.000e-01  
  2.1400e-08    8.998e-01    9.570e-05    0.000e+00    9.000e-01  
  2.1500e-08    8.998e-01    9.236e-05    0.000e+00    9.000e-01  
  2.1600e-08    8.998e-01    9.645e-05    0.000e+00    9.000e-01  
  2.1700e-08    8.998e-01    1.005e-04    0.000e+00    9.000e-01  
  2.1800e-08    8.998e-01    1.046e-04    0.000e+00    9.000e-01  
  2.1900e-08    8.998e-01    1.087e-04    0.000e+00    9.000e-01  
  2.2000e-08    8.998e-01    1.128e-04    0.000e+00    9.000e-01  
  2.2100e-08    8.998e-01    1.169e-04    0.000e+00    9.000e-01  
  2.2200e-08    8.998e-01    1.210e-04    0.000e+00    9.000e-01  
  2.2300e-08    8.997e-01    1.251e-04    0.000e+00    9.000e-01  
  2.2400e-08    8.997e-01    1.292e-04    0.000e+00    9.000e-01  
  2.2500e-08    8.997e-01    1.332e-04    0.000e+00    9.000e-01  
  2.2600e-08    8.998e-01    8.302e-06    9.000e-01    0.000e+00  
  2.2700e-08    8.998e-01    1.177e-04    9.000e-01    0.000e+00  
  2.2800e-08    8.998e-01    1.075e-04    9.000e-01    0.000e+00  
  2.2900e-08    8.998e-01    1.186e-04    9.000e-01    0.000e+00  
  2.3000e-08    8.998e-01    1.208e-04    9.000e-01    0.000e+00  
  2.3100e-08    8.998e-01    1.160e-04    9.000e-01    0.000e+00  
  2.3200e-08    8.998e-01    1.112e-04    9.000e-01    0.000e+00  
  2.3300e-08    8.998e-01    1.064e-04    9.000e-01    0.000e+00  
  2.3400e-08    8.998e-01    1.017e-04    9.000e-01    0.000e+00  
  2.3500e-08    8.998e-01    1.038e-04    9.000e-01    0.000e+00  
  2.3600e-08    8.998e-01    1.060e-04    9.000e-01    0.000e+00  
  2.3700e-08    8.998e-01    1.081e-04    9.000e-01    0.000e+00  
  2.3800e-08    8.998e-01    1.102e-04    9.000e-01    0.000e+00  
  2.3900e-08    8.998e-01    1.124e-04    9.000e-01    0.000e+00  
  2.4000e-08    8.998e-01    1.145e-04    9.000e-01    0.000e+00  
  2.4100e-08    8.998e-01    1.166e-04    9.000e-01    0.000e+00  
  2.4200e-08    8.998e-01    1.188e-04    9.000e-01    0.000e+00  
  2.4300e-08    8.998e-01    1.209e-04    9.000e-01    0.000e+00  
  2.4400e-08    8.998e-01    1.231e-04    9.000e-01    0.000e+00  
  2.4500e-08    8.998e-01    1.202e-04    9.000e-01    0.000e+00  
  2.4600e-08    8.998e-01    1.165e-04    9.000e-01    0.000e+00  
  2.4700e-08    8.998e-01    1.128e-04    9.000e-01    0.000e+00  
  2.4800e-08    8.998e-01    1.092e-04    9.000e-01    0.000e+00  
  2.4900e-08    8.998e-01    1.055e-04    9.000e-01    0.000e+00  
  2.5000e-08    8.998e-01    1.018e-04    9.000e-01    0.000e+00  
  2.5100e-08    8.998e-01    1.170e-04    0.000e+00    9.000e-01  
  2.5200e-08    8.998e-01    1.118e-04    0.000e+00    9.000e-01  
  2.5300e-08    8.998e-01    1.135e-04    0.000e+00    9.000e-01  
  2.5400e-08    8.998e-01    1.130e-04    0.000e+00    9.000e-01  
  2.5500e-08    8.998e-01    1.125e-04    0.000e+00    9.000e-01  
  2.5600e-08    8.998e-01    1.120e-04    0.000e+00    9.000e-01  
  2.5700e-08    8.998e-01    1.116e-04    0.000e+00    9.000e-01  
  2.5800e-08    8.998e-01    1.118e-04    0.000e+00    9.000e-01  
  2.5900e-08    8.998e-01    1.119e-04    0.000e+00    9.000e-01  
  2.6000e-08    8.998e-01    1.121e-04    0.000e+00    9.000e-01  
  2.6100e-08    8.998e-01    1.123e-04    0.000e+00    9.000e-01  
  2.6200e-08    8.998e-01    1.124e-04    0.000e+00    9.000e-01  
  2.6300e-08    8.998e-01    1.126e-04    0.000e+00    9.000e-01  
  2.6400e-08    8.998e-01    1.127e-04    0.000e+00    9.000e-01  
  2.6500e-08    8.998e-01    1.129e-04    0.000e+00    9.000e-01  
  2.6600e-08    8.998e-01    1.131e-04    0.000e+00    9.000e-01  
  2.6700e-08    8.998e-01    1.132e-04    0.000e+00    9.000e-01  
  2.6800e-08    8.998e-01    1.134e-04    0.000e+00    9.000e-01  
  2.6900e-08    8.998e-01    1.134e-04    0.000e+00    9.000e-01  
  2.7000e-08    8.998e-01    1.131e-04    0.000e+00    9.000e-01  
  2.7100e-08    8.998e-01    1.128e-04    0.000e+00    9.000e-01  
  2.7200e-08    8.998e-01    1.125e-04    0.000e+00    9.000e-01  
  2.7300e-08    8.998e-01    1.122e-04    0.000e+00    9.000e-01  
  2.7400e-08    8.998e-01    1.119e-04    0.000e+00    9.000e-01  
  2.7500e-08    8.998e-01    1.116e-04    0.000e+00    9.000e-01  
  2.7600e-08    1.245e-03    8.990e-01    0.000e+00    9.000e-01  
  2.7700e-08    5.035e-05    8.999e-01    0.000e+00    9.000e-01  
  2.7800e-08    3.745e-05    9.000e-01    0.000e+00    9.000e-01  
  2.7900e-08    3.967e-05    9.000e-01    0.000e+00    9.000e-01  
  2.8000e-08    4.504e-05    9.000e-01    0.000e+00    9.000e-01  
  2.8100e-08    3.664e-05    9.000e-01    0.000e+00    9.000e-01  
  2.8200e-08    2.824e-05    9.000e-01    0.000e+00    9.000e-01  
  2.8300e-08    3.086e-05    9.000e-01    0.000e+00    9.000e-01  
  2.8400e-08    3.542e-05    9.000e-01    0.000e+00    9.000e-01  
  2.8500e-08    3.998e-05    9.000e-01    0.000e+00    9.000e-01  
  2.8600e-08    4.454e-05    9.000e-01    0.000e+00    9.000e-01  
  2.8700e-08    4.289e-05    9.000e-01    0.000e+00    9.000e-01  
  2.8800e-08    4.001e-05    9.000e-01    0.000e+00    9.000e-01  
  2.8900e-08    3.713e-05    9.000e-01    0.000e+00    9.000e-01  
  2.9000e-08    3.424e-05    9.000e-01    0.000e+00    9.000e-01  
  2.9100e-08    3.136e-05    9.000e-01    0.000e+00    9.000e-01  
  2.9200e-08    2.847e-05    9.000e-01    0.000e+00    9.000e-01  
  2.9300e-08    2.725e-05    9.000e-01    0.000e+00    9.000e-01  
  2.9400e-08    2.981e-05    9.000e-01    0.000e+00    9.000e-01  
  2.9500e-08    3.238e-05    9.000e-01    0.000e+00    9.000e-01  
  2.9600e-08    3.494e-05    9.000e-01    0.000e+00    9.000e-01  
  2.9700e-08    3.751e-05    9.000e-01    0.000e+00    9.000e-01  
  2.9800e-08    4.007e-05    9.000e-01    0.000e+00    9.000e-01  
  2.9900e-08    4.264e-05    9.000e-01    0.000e+00    9.000e-01  
  3.0000e-08    4.520e-05    9.000e-01    0.000e+00    9.000e-01  
  3.0100e-08   -1.285e-03    9.000e-01    0.000e+00    9.000e-01  
  3.0200e-08    1.143e-04    9.000e-01    0.000e+00    9.000e-01  
  3.0300e-08    1.100e-04    9.000e-01    0.000e+00    9.000e-01  
  3.0400e-08    1.119e-04    9.000e-01    0.000e+00    9.000e-01  
  3.0500e-08    1.137e-04    9.000e-01    0.000e+00    9.000e-01  
  3.0600e-08    1.152e-04    9.000e-01    0.000e+00    9.000e-01  
  3.0700e-08    1.146e-04    9.000e-01    0.000e+00    9.000e-01  
  3.0800e-08    1.140e-04    9.000e-01    0.000e+00    9.000e-01  
  3.0900e-08    1.135e-04    9.000e-01    0.000e+00    9.000e-01  
  3.1000e-08    1.129e-04    9.000e-01    0.000e+00    9.000e-01  
  3.1100e-08    1.123e-04    9.000e-01    0.000e+00    9.000e-01  
  3.1200e-08    1.118e-04    9.000e-01    0.000e+00    9.000e-01  
  3.1300e-08    1.112e-04    9.000e-01    0.000e+00    9.000e-01  
  3.1400e-08    1.106e-04    9.000e-01    0.000e+00    9.000e-01  
  3.1500e-08    1.101e-04    9.000e-01    0.000e+00    9.000e-01  
  3.1600e-08    1.100e-04    9.000e-01    0.000e+00    9.000e-01  
  3.1700e-08    1.106e-04    9.000e-01    0.000e+00    9.000e-01  
  3.1800e-08    1.112e-04    9.000e-01    0.000e+00    9.000e-01  
  3.1900e-08    1.118e-04    9.000e-01    0.000e+00    9.000e-01  
  3.2000e-08    1.123e-04    9.000e-01    0.000e+00    9.000e-01  
  3.2100e-08    1.129e-04    9.000e-01    0.000e+00    9.000e-01  
  3.2200e-08    1.135e-04    9.000e-01    0.000e+00    9.000e-01  
  3.2300e-08    1.141e-04    9.000e-01    0.000e+00    9.000e-01  
  3.2400e-08    1.147e-04    9.000e-01    0.000e+00    9.000e-01  
  3.2500e-08    1.153e-04    9.000e-01    0.000e+00    9.000e-01  
  3.2600e-08   -5.420e-06    8.996e-01    9.000e-01    0.000e+00  
  3.2700e-08    1.132e-04    9.000e-01    9.000e-01    0.000e+00  
  3.2800e-08    1.129e-04    9.000e-01    9.000e-01    0.000e+00  
  3.2900e-08    1.099e-04    9.000e-01    9.000e-01    0.000e+00  
  3.3000e-08    1.107e-04    9.000e-01    9.000e-01    0.000e+00  
  3.3100e-08    1.117e-04    9.000e-01    9.000e-01    0.000e+00  
  3.3200e-08    1.127e-04    9.000e-01    9.000e-01    0.000e+00  
  3.3300e-08    1.137e-04    9.000e-01    9.000e-01    0.000e+00  
  3.3400e-08    1.147e-04    9.000e-01    9.000e-01    0.000e+00  
  3.3500e-08    1.151e-04    9.000e-01    9.000e-01    0.000e+00  
  3.3600e-08    1.147e-04    9.000e-01    9.000e-01    0.000e+00  
  3.3700e-08    1.143e-04    9.000e-01    9.000e-01    0.000e+00  
  3.3800e-08    1.139e-04    9.000e-01    9.000e-01    0.000e+00  
  3.3900e-08    1.135e-04    9.000e-01    9.000e-01    0.000e+00  
  3.4000e-08    1.131e-04    9.000e-01    9.000e-01    0.000e+00  
  3.4100e-08    1.126e-04    9.000e-01    9.000e-01    0.000e+00  
  3.4200e-08    1.122e-04    9.000e-01    9.000e-01    0.000e+00  
  3.4300e-08    1.118e-04    9.000e-01    9.000e-01    0.000e+00  
  3.4400e-08    1.114e-04    9.000e-01    9.000e-01    0.000e+00  
  3.4500e-08    1.110e-04    9.000e-01    9.000e-01    0.000e+00  
  3.4600e-08    1.106e-04    9.000e-01    9.000e-01    0.000e+00  
  3.4700e-08    1.101e-04    9.000e-01    9.000e-01    0.000e+00  
  3.4800e-08    1.097e-04    9.000e-01    9.000e-01    0.000e+00  
  3.4900e-08    1.124e-04    9.000e-01    9.000e-01    0.000e+00  
  3.5000e-08    1.154e-04    9.000e-01    9.000e-01    0.000e+00  
  3.5100e-08    1.145e-04    9.000e-01    9.000e-01    0.000e+00  
  3.5200e-08    1.135e-04    9.000e-01    9.000e-01    0.000e+00  
  3.5300e-08    1.126e-04    9.000e-01    9.000e-01    0.000e+00  
  3.5400e-08    1.125e-04    9.000e-01    9.000e-01    0.000e+00  
  3.5500e-08    1.125e-04    9.000e-01    9.000e-01    0.000e+00  
  3.5600e-08    1.125e-04    9.000e-01    9.000e-01    0.000e+00  
  3.5700e-08    1.125e-04    9.000e-01    9.000e-01    0.000e+00  
  3.5800e-08    1.125e-04    9.000e-01    9.000e-01    0.000e+00  
  3.5900e-08    1.125e-04    9.000e-01    9.000e-01    0.000e+00  
  3.6000e-08    1.125e-04    9.000e-01    9.000e-01    0.000e+00  
  3.6100e-08    1.125e-04    9.000e-01    9.000e-01    0.000e+00  
  3.6200e-08    1.125e-04    9.000e-01    9.000e-01    0.000e+00  
  3.6300e-08    1.125e-04    9.000e-01    9.000e-01    0.000e+00  
  3.6400e-08    1.125e-04    9.000e-01    9.000e-01    0.000e+00  
  3.6500e-08    1.125e-04    9.000e-01    9.000e-01    0.000e+00  
  3.6600e-08    1.125e-04    9.000e-01    9.000e-01    0.000e+00  
  3.6700e-08    1.125e-04    9.000e-01    9.000e-01    0.000e+00  
  3.6800e-08    1.125e-04    9.000e-01    9.000e-01    0.000e+00  
  3.6900e-08    1.125e-04    9.000e-01    9.000e-01    0.000e+00  
  3.7000e-08    1.125e-04    9.000e-01    9.000e-01    0.000e+00  
  3.7100e-08    1.125e-04    9.000e-01    9.000e-01    0.000e+00  
  3.7200e-08    1.125e-04    9.000e-01    9.000e-01    0.000e+00  
  3.7300e-08    1.125e-04    9.000e-01    9.000e-01    0.000e+00  
  3.7400e-08    1.125e-04    9.000e-01    9.000e-01    0.000e+00  
  3.7500e-08    1.125e-04    9.000e-01    9.000e-01    0.000e+00  
  3.7600e-08    1.125e-04    9.000e-01    9.000e-01    0.000e+00  
  3.7700e-08    1.125e-04    9.000e-01    9.000e-01    0.000e+00  
  3.7800e-08    1.125e-04    9.000e-01    9.000e-01    0.000e+00  
  3.7900e-08    1.125e-04    9.000e-01    9.000e-01    0.000e+00  
  3.8000e-08    1.125e-04    9.000e-01    9.000e-01    0.000e+00  
  3.8100e-08    1.125e-04    9.000e-01    9.000e-01    0.000e+00  
  3.8200e-08    1.125e-04    9.000e-01    9.000e-01    0.000e+00  
  3.8300e-08    1.125e-04    9.000e-01    9.000e-01    0.000e+00  
  3.8400e-08    1.125e-04    9.000e-01    9.000e-01    0.000e+00  
  3.8500e-08    1.125e-04    9.000e-01    9.000e-01    0.000e+00  
  3.8600e-08    1.125e-04    9.000e-01    9.000e-01    0.000e+00  
  3.8700e-08    1.125e-04    9.000e-01    9.000e-01    0.000e+00  
  3.8800e-08    1.125e-04    9.000e-01    9.000e-01    0.000e+00  
  3.8900e-08    1.125e-04    9.000e-01    9.000e-01    0.000e+00  
  3.9000e-08    1.125e-04    9.000e-01    9.000e-01    0.000e+00  
  3.9100e-08    1.125e-04    9.000e-01    9.000e-01    0.000e+00  
  3.9200e-08    1.125e-04    9.000e-01    9.000e-01    0.000e+00  
  3.9300e-08    1.125e-04    9.000e-01    9.000e-01    0.000e+00  
  3.9400e-08    1.125e-04    9.000e-01    9.000e-01    0.000e+00  
  3.9500e-08    1.125e-04    9.000e-01    9.000e-01    0.000e+00  
  3.9600e-08    1.125e-04    9.000e-01    9.000e-01    0.000e+00  
  3.9700e-08    1.125e-04    9.000e-01    9.000e-01    0.000e+00  
  3.9800e-08    1.125e-04    9.000e-01    9.000e-01    0.000e+00  
  3.9900e-08    1.125e-04    9.000e-01    9.000e-01    0.000e+00  
  4.0000e-08    1.125e-04    9.000e-01    9.000e-01    0.000e+00  
y
x

        time    voltage    
                    rbl    
  0.0000e+00    4.500e-01  
  1.0000e-10    4.420e-01  
  2.0000e-10    4.352e-01  
  3.0000e-10    4.288e-01  
  4.0000e-10    4.227e-01  
  5.0000e-10    4.182e-01  
  6.0000e-10    4.137e-01  
  7.0000e-10    4.091e-01  
  8.0000e-10    4.046e-01  
  9.0000e-10    4.001e-01  
  1.0000e-09    3.956e-01  
  1.1000e-09    3.911e-01  
  1.2000e-09    3.880e-01  
  1.3000e-09    3.852e-01  
  1.4000e-09    3.824e-01  
  1.5000e-09    3.796e-01  
  1.6000e-09    3.767e-01  
  1.7000e-09    3.739e-01  
  1.8000e-09    3.711e-01  
  1.9000e-09    3.683e-01  
  2.0000e-09    3.655e-01  
  2.1000e-09    3.633e-01  
  2.2000e-09    3.616e-01  
  2.3000e-09    3.598e-01  
  2.4000e-09    3.581e-01  
  2.5000e-09    3.563e-01  
  2.6000e-09    3.546e-01  
  2.7000e-09    3.528e-01  
  2.8000e-09    3.511e-01  
  2.9000e-09    3.493e-01  
  3.0000e-09    3.476e-01  
  3.1000e-09    3.458e-01  
  3.2000e-09    3.441e-01  
  3.3000e-09    3.423e-01  
  3.4000e-09    3.405e-01  
  3.5000e-09    3.388e-01  
  3.6000e-09    3.376e-01  
  3.7000e-09    3.365e-01  
  3.8000e-09    3.354e-01  
  3.9000e-09    3.342e-01  
  4.0000e-09    3.331e-01  
  4.1000e-09    3.319e-01  
  4.2000e-09    3.308e-01  
  4.3000e-09    3.296e-01  
  4.4000e-09    3.285e-01  
  4.5000e-09    3.273e-01  
  4.6000e-09    3.262e-01  
  4.7000e-09    3.250e-01  
  4.8000e-09    3.239e-01  
  4.9000e-09    3.228e-01  
  5.0000e-09    3.216e-01  
  5.1000e-09    3.207e-01  
  5.2000e-09    3.197e-01  
  5.3000e-09    3.188e-01  
  5.4000e-09    3.179e-01  
  5.5000e-09    3.170e-01  
  5.6000e-09    3.162e-01  
  5.7000e-09    3.153e-01  
  5.8000e-09    3.145e-01  
  5.9000e-09    3.137e-01  
  6.0000e-09    3.129e-01  
  6.1000e-09    3.121e-01  
  6.2000e-09    3.112e-01  
  6.3000e-09    3.104e-01  
  6.4000e-09    3.096e-01  
  6.5000e-09    3.088e-01  
  6.6000e-09    3.081e-01  
  6.7000e-09    3.074e-01  
  6.8000e-09    3.067e-01  
  6.9000e-09    3.059e-01  
  7.0000e-09    3.052e-01  
  7.1000e-09    3.045e-01  
  7.2000e-09    3.038e-01  
  7.3000e-09    3.031e-01  
  7.4000e-09    3.023e-01  
  7.5000e-09    3.016e-01  
  7.6000e-09    3.009e-01  
  7.7000e-09    3.003e-01  
  7.8000e-09    2.996e-01  
  7.9000e-09    2.990e-01  
  8.0000e-09    2.984e-01  
  8.1000e-09    2.977e-01  
  8.2000e-09    2.971e-01  
  8.3000e-09    2.965e-01  
  8.4000e-09    2.959e-01  
  8.5000e-09    2.953e-01  
  8.6000e-09    2.947e-01  
  8.7000e-09    2.941e-01  
  8.8000e-09    2.935e-01  
  8.9000e-09    2.929e-01  
  9.0000e-09    2.924e-01  
  9.1000e-09    2.918e-01  
  9.2000e-09    2.912e-01  
  9.3000e-09    2.906e-01  
  9.4000e-09    2.900e-01  
  9.5000e-09    2.894e-01  
  9.6000e-09    2.888e-01  
  9.7000e-09    2.883e-01  
  9.8000e-09    2.877e-01  
  9.9000e-09    2.872e-01  
  1.0000e-08    2.866e-01  
  1.0100e-08    2.861e-01  
  1.0200e-08    2.856e-01  
  1.0300e-08    2.851e-01  
  1.0400e-08    2.845e-01  
  1.0500e-08    2.840e-01  
  1.0600e-08    2.835e-01  
  1.0700e-08    2.830e-01  
  1.0800e-08    2.825e-01  
  1.0900e-08    2.820e-01  
  1.1000e-08    2.815e-01  
  1.1100e-08    2.810e-01  
  1.1200e-08    2.805e-01  
  1.1300e-08    2.800e-01  
  1.1400e-08    2.796e-01  
  1.1500e-08    2.791e-01  
  1.1600e-08    2.786e-01  
  1.1700e-08    2.781e-01  
  1.1800e-08    2.776e-01  
  1.1900e-08    2.771e-01  
  1.2000e-08    2.766e-01  
  1.2100e-08    2.762e-01  
  1.2200e-08    2.757e-01  
  1.2300e-08    2.752e-01  
  1.2400e-08    2.748e-01  
  1.2500e-08    2.743e-01  
  1.2600e-08    3.345e-01  
  1.2700e-08    3.201e-01  
  1.2800e-08    3.050e-01  
  1.2900e-08    2.888e-01  
  1.3000e-08    2.724e-01  
  1.3100e-08    2.560e-01  
  1.3200e-08    2.396e-01  
  1.3300e-08    2.226e-01  
  1.3400e-08    2.053e-01  
  1.3500e-08    1.879e-01  
  1.3600e-08    1.706e-01  
  1.3700e-08    1.533e-01  
  1.3800e-08    1.359e-01  
  1.3900e-08    1.186e-01  
  1.4000e-08    1.013e-01  
  1.4100e-08    8.396e-02  
  1.4200e-08    7.250e-02  
  1.4300e-08    6.394e-02  
  1.4400e-08    5.538e-02  
  1.4500e-08    4.682e-02  
  1.4600e-08    3.827e-02  
  1.4700e-08    2.971e-02  
  1.4800e-08    2.115e-02  
  1.4900e-08    1.259e-02  
  1.5000e-08    4.036e-03  
  1.5100e-08   -1.253e-01  
  1.5200e-08   -7.751e-02  
  1.5300e-08   -6.582e-02  
  1.5400e-08   -5.969e-02  
  1.5500e-08   -5.525e-02  
  1.5600e-08   -5.168e-02  
  1.5700e-08   -4.837e-02  
  1.5800e-08   -4.593e-02  
  1.5900e-08   -4.349e-02  
  1.6000e-08   -4.105e-02  
  1.6100e-08   -3.879e-02  
  1.6200e-08   -3.730e-02  
  1.6300e-08   -3.580e-02  
  1.6400e-08   -3.430e-02  
  1.6500e-08   -3.280e-02  
  1.6600e-08   -3.131e-02  
  1.6700e-08   -2.981e-02  
  1.6800e-08   -2.831e-02  
  1.6900e-08   -2.706e-02  
  1.7000e-08   -2.612e-02  
  1.7100e-08   -2.518e-02  
  1.7200e-08   -2.424e-02  
  1.7300e-08   -2.329e-02  
  1.7400e-08   -2.235e-02  
  1.7500e-08   -2.141e-02  
  1.7600e-08    5.044e-01  
  1.7700e-08    5.051e-01  
  1.7800e-08    5.057e-01  
  1.7900e-08    5.063e-01  
  1.8000e-08    5.069e-01  
  1.8100e-08    5.075e-01  
  1.8200e-08    5.081e-01  
  1.8300e-08    5.087e-01  
  1.8400e-08    5.093e-01  
  1.8500e-08    5.099e-01  
  1.8600e-08    5.105e-01  
  1.8700e-08    5.111e-01  
  1.8800e-08    5.117e-01  
  1.8900e-08    5.123e-01  
  1.9000e-08    5.129e-01  
  1.9100e-08    5.135e-01  
  1.9200e-08    5.141e-01  
  1.9300e-08    5.147e-01  
  1.9400e-08    5.152e-01  
  1.9500e-08    5.158e-01  
  1.9600e-08    5.164e-01  
  1.9700e-08    5.170e-01  
  1.9800e-08    5.176e-01  
  1.9900e-08    5.182e-01  
  2.0000e-08    5.188e-01  
  2.0100e-08    5.193e-01  
  2.0200e-08    5.200e-01  
  2.0300e-08    5.206e-01  
  2.0400e-08    5.212e-01  
  2.0500e-08    5.218e-01  
  2.0600e-08    5.224e-01  
  2.0700e-08    5.230e-01  
  2.0800e-08    5.236e-01  
  2.0900e-08    5.242e-01  
  2.1000e-08    5.247e-01  
  2.1100e-08    5.253e-01  
  2.1200e-08    5.259e-01  
  2.1300e-08    5.265e-01  
  2.1400e-08    5.271e-01  
  2.1500e-08    5.277e-01  
  2.1600e-08    5.283e-01  
  2.1700e-08    5.289e-01  
  2.1800e-08    5.295e-01  
  2.1900e-08    5.301e-01  
  2.2000e-08    5.307e-01  
  2.2100e-08    5.313e-01  
  2.2200e-08    5.319e-01  
  2.2300e-08    5.324e-01  
  2.2400e-08    5.330e-01  
  2.2500e-08    5.336e-01  
  2.2600e-08    8.950e-01  
  2.2700e-08    9.000e-01  
  2.2800e-08    9.000e-01  
  2.2900e-08    9.000e-01  
  2.3000e-08    9.001e-01  
  2.3100e-08    9.000e-01  
  2.3200e-08    9.000e-01  
  2.3300e-08    9.000e-01  
  2.3400e-08    8.999e-01  
  2.3500e-08    8.999e-01  
  2.3600e-08    8.999e-01  
  2.3700e-08    9.000e-01  
  2.3800e-08    9.000e-01  
  2.3900e-08    9.000e-01  
  2.4000e-08    9.000e-01  
  2.4100e-08    9.000e-01  
  2.4200e-08    9.000e-01  
  2.4300e-08    9.001e-01  
  2.4400e-08    9.001e-01  
  2.4500e-08    9.001e-01  
  2.4600e-08    9.000e-01  
  2.4700e-08    9.000e-01  
  2.4800e-08    9.000e-01  
  2.4900e-08    8.999e-01  
  2.5000e-08    8.999e-01  
  2.5100e-08    8.441e-01  
  2.5200e-08    8.441e-01  
  2.5300e-08    8.445e-01  
  2.5400e-08    8.449e-01  
  2.5500e-08    8.453e-01  
  2.5600e-08    8.457e-01  
  2.5700e-08    8.461e-01  
  2.5800e-08    8.464e-01  
  2.5900e-08    8.468e-01  
  2.6000e-08    8.472e-01  
  2.6100e-08    8.475e-01  
  2.6200e-08    8.479e-01  
  2.6300e-08    8.483e-01  
  2.6400e-08    8.487e-01  
  2.6500e-08    8.490e-01  
  2.6600e-08    8.494e-01  
  2.6700e-08    8.498e-01  
  2.6800e-08    8.501e-01  
  2.6900e-08    8.505e-01  
  2.7000e-08    8.508e-01  
  2.7100e-08    8.512e-01  
  2.7200e-08    8.516e-01  
  2.7300e-08    8.519e-01  
  2.7400e-08    8.523e-01  
  2.7500e-08    8.526e-01  
  2.7600e-08    3.248e-01  
  2.7700e-08    3.238e-01  
  2.7800e-08    3.227e-01  
  2.7900e-08    3.216e-01  
  2.8000e-08    3.206e-01  
  2.8100e-08    3.195e-01  
  2.8200e-08    3.185e-01  
  2.8300e-08    3.175e-01  
  2.8400e-08    3.165e-01  
  2.8500e-08    3.156e-01  
  2.8600e-08    3.146e-01  
  2.8700e-08    3.137e-01  
  2.8800e-08    3.128e-01  
  2.8900e-08    3.119e-01  
  2.9000e-08    3.110e-01  
  2.9100e-08    3.101e-01  
  2.9200e-08    3.092e-01  
  2.9300e-08    3.083e-01  
  2.9400e-08    3.075e-01  
  2.9500e-08    3.067e-01  
  2.9600e-08    3.059e-01  
  2.9700e-08    3.051e-01  
  2.9800e-08    3.043e-01  
  2.9900e-08    3.035e-01  
  3.0000e-08    3.026e-01  
  3.0100e-08    3.019e-01  
  3.0200e-08    3.011e-01  
  3.0300e-08    3.004e-01  
  3.0400e-08    2.997e-01  
  3.0500e-08    2.989e-01  
  3.0600e-08    2.982e-01  
  3.0700e-08    2.975e-01  
  3.0800e-08    2.968e-01  
  3.0900e-08    2.962e-01  
  3.1000e-08    2.955e-01  
  3.1100e-08    2.948e-01  
  3.1200e-08    2.941e-01  
  3.1300e-08    2.934e-01  
  3.1400e-08    2.927e-01  
  3.1500e-08    2.921e-01  
  3.1600e-08    2.914e-01  
  3.1700e-08    2.908e-01  
  3.1800e-08    2.902e-01  
  3.1900e-08    2.895e-01  
  3.2000e-08    2.889e-01  
  3.2100e-08    2.883e-01  
  3.2200e-08    2.877e-01  
  3.2300e-08    2.871e-01  
  3.2400e-08    2.864e-01  
  3.2500e-08    2.858e-01  
  3.2600e-08    1.347e-03  
  3.2700e-08    5.976e-05  
  3.2800e-08    6.050e-05  
  3.2900e-08    5.440e-05  
  3.3000e-08    5.589e-05  
  3.3100e-08    5.776e-05  
  3.3200e-08    5.963e-05  
  3.3300e-08    6.150e-05  
  3.3400e-08    6.337e-05  
  3.3500e-08    6.420e-05  
  3.3600e-08    6.345e-05  
  3.3700e-08    6.269e-05  
  3.3800e-08    6.194e-05  
  3.3900e-08    6.118e-05  
  3.4000e-08    6.043e-05  
  3.4100e-08    5.968e-05  
  3.4200e-08    5.892e-05  
  3.4300e-08    5.817e-05  
  3.4400e-08    5.742e-05  
  3.4500e-08    5.666e-05  
  3.4600e-08    5.591e-05  
  3.4700e-08    5.516e-05  
  3.4800e-08    5.440e-05  
  3.4900e-08    5.897e-05  
  3.5000e-08    6.394e-05  
  3.5100e-08    6.249e-05  
  3.5200e-08    6.104e-05  
  3.5300e-08    5.959e-05  
  3.5400e-08    5.945e-05  
  3.5500e-08    5.943e-05  
  3.5600e-08    5.941e-05  
  3.5700e-08    5.939e-05  
  3.5800e-08    5.937e-05  
  3.5900e-08    5.936e-05  
  3.6000e-08    5.934e-05  
  3.6100e-08    5.932e-05  
  3.6200e-08    5.930e-05  
  3.6300e-08    5.929e-05  
  3.6400e-08    5.929e-05  
  3.6500e-08    5.930e-05  
  3.6600e-08    5.931e-05  
  3.6700e-08    5.932e-05  
  3.6800e-08    5.933e-05  
  3.6900e-08    5.934e-05  
  3.7000e-08    5.935e-05  
  3.7100e-08    5.936e-05  
  3.7200e-08    5.937e-05  
  3.7300e-08    5.937e-05  
  3.7400e-08    5.938e-05  
  3.7500e-08    5.939e-05  
  3.7600e-08    5.940e-05  
  3.7700e-08    5.941e-05  
  3.7800e-08    5.942e-05  
  3.7900e-08    5.943e-05  
  3.8000e-08    5.944e-05  
  3.8100e-08    5.945e-05  
  3.8200e-08    5.945e-05  
  3.8300e-08    5.946e-05  
  3.8400e-08    5.945e-05  
  3.8500e-08    5.944e-05  
  3.8600e-08    5.944e-05  
  3.8700e-08    5.943e-05  
  3.8800e-08    5.942e-05  
  3.8900e-08    5.941e-05  
  3.9000e-08    5.940e-05  
  3.9100e-08    5.939e-05  
  3.9200e-08    5.938e-05  
  3.9300e-08    5.938e-05  
  3.9400e-08    5.937e-05  
  3.9500e-08    5.936e-05  
  3.9600e-08    5.935e-05  
  3.9700e-08    5.934e-05  
  3.9800e-08    5.933e-05  
  3.9900e-08    5.932e-05  
  4.0000e-08    5.932e-05  
y
-----------------------------------------------
x

        time    current    
                    vdd    
  0.0000e+00   -6.048e-07  
  1.0000e-10   -6.048e-07  
  2.0000e-10   -6.048e-07  
  3.0000e-10   -6.048e-07  
  4.0000e-10   -6.048e-07  
  5.0000e-10   -6.048e-07  
  6.0000e-10   -6.048e-07  
  7.0000e-10   -6.048e-07  
  8.0000e-10   -6.048e-07  
  9.0000e-10   -6.048e-07  
  1.0000e-09   -6.048e-07  
  1.1000e-09   -6.048e-07  
  1.2000e-09   -6.048e-07  
  1.3000e-09   -6.048e-07  
  1.4000e-09   -6.048e-07  
  1.5000e-09   -6.048e-07  
  1.6000e-09   -6.048e-07  
  1.7000e-09   -6.048e-07  
  1.8000e-09   -6.048e-07  
  1.9000e-09   -6.048e-07  
  2.0000e-09   -6.048e-07  
  2.1000e-09   -6.048e-07  
  2.2000e-09   -6.048e-07  
  2.3000e-09   -6.048e-07  
  2.4000e-09   -6.048e-07  
  2.5000e-09   -6.048e-07  
  2.6000e-09   -6.048e-07  
  2.7000e-09   -6.048e-07  
  2.8000e-09   -6.048e-07  
  2.9000e-09   -6.048e-07  
  3.0000e-09   -6.048e-07  
  3.1000e-09   -6.048e-07  
  3.2000e-09   -6.048e-07  
  3.3000e-09   -6.048e-07  
  3.4000e-09   -6.048e-07  
  3.5000e-09   -6.048e-07  
  3.6000e-09   -6.048e-07  
  3.7000e-09   -6.048e-07  
  3.8000e-09   -6.048e-07  
  3.9000e-09   -6.048e-07  
  4.0000e-09   -6.048e-07  
  4.1000e-09   -6.048e-07  
  4.2000e-09   -6.048e-07  
  4.3000e-09   -6.048e-07  
  4.4000e-09   -6.048e-07  
  4.5000e-09   -6.048e-07  
  4.6000e-09   -6.048e-07  
  4.7000e-09   -6.048e-07  
  4.8000e-09   -6.048e-07  
  4.9000e-09   -6.048e-07  
  5.0000e-09   -6.048e-07  
  5.1000e-09   -5.967e-07  
  5.2000e-09   -6.045e-07  
  5.3000e-09   -6.045e-07  
  5.4000e-09   -6.045e-07  
  5.5000e-09   -6.045e-07  
  5.6000e-09   -6.045e-07  
  5.7000e-09   -6.045e-07  
  5.8000e-09   -6.045e-07  
  5.9000e-09   -6.045e-07  
  6.0000e-09   -6.045e-07  
  6.1000e-09   -6.045e-07  
  6.2000e-09   -6.045e-07  
  6.3000e-09   -6.045e-07  
  6.4000e-09   -6.045e-07  
  6.5000e-09   -6.045e-07  
  6.6000e-09   -6.045e-07  
  6.7000e-09   -6.045e-07  
  6.8000e-09   -6.045e-07  
  6.9000e-09   -6.045e-07  
  7.0000e-09   -6.045e-07  
  7.1000e-09   -6.045e-07  
  7.2000e-09   -6.045e-07  
  7.3000e-09   -6.045e-07  
  7.4000e-09   -6.045e-07  
  7.5000e-09   -6.045e-07  
  7.6000e-09   -6.006e-07  
  7.7000e-09   -6.031e-07  
  7.8000e-09   -6.031e-07  
  7.9000e-09   -6.031e-07  
  8.0000e-09   -6.031e-07  
  8.1000e-09   -6.031e-07  
  8.2000e-09   -6.030e-07  
  8.3000e-09   -6.030e-07  
  8.4000e-09   -6.030e-07  
  8.5000e-09   -6.031e-07  
  8.6000e-09   -6.031e-07  
  8.7000e-09   -6.031e-07  
  8.8000e-09   -6.031e-07  
  8.9000e-09   -6.031e-07  
  9.0000e-09   -6.031e-07  
  9.1000e-09   -6.031e-07  
  9.2000e-09   -6.031e-07  
  9.3000e-09   -6.031e-07  
  9.4000e-09   -6.031e-07  
  9.5000e-09   -6.031e-07  
  9.6000e-09   -6.031e-07  
  9.7000e-09   -6.031e-07  
  9.8000e-09   -6.031e-07  
  9.9000e-09   -6.031e-07  
  1.0000e-08   -6.030e-07  
  1.0100e-08   -6.225e-07  
  1.0200e-08   -6.048e-07  
  1.0300e-08   -6.048e-07  
  1.0400e-08   -6.048e-07  
  1.0500e-08   -6.048e-07  
  1.0600e-08   -6.048e-07  
  1.0700e-08   -6.048e-07  
  1.0800e-08   -6.048e-07  
  1.0900e-08   -6.048e-07  
  1.1000e-08   -6.048e-07  
  1.1100e-08   -6.048e-07  
  1.1200e-08   -6.048e-07  
  1.1300e-08   -6.048e-07  
  1.1400e-08   -6.048e-07  
  1.1500e-08   -6.048e-07  
  1.1600e-08   -6.048e-07  
  1.1700e-08   -6.048e-07  
  1.1800e-08   -6.048e-07  
  1.1900e-08   -6.048e-07  
  1.2000e-08   -6.048e-07  
  1.2100e-08   -6.048e-07  
  1.2200e-08   -6.048e-07  
  1.2300e-08   -6.048e-07  
  1.2400e-08   -6.048e-07  
  1.2500e-08   -6.048e-07  
  1.2600e-08   -6.104e-07  
  1.2700e-08   -6.053e-07  
  1.2800e-08   -6.054e-07  
  1.2900e-08   -6.053e-07  
  1.3000e-08   -6.053e-07  
  1.3100e-08   -6.053e-07  
  1.3200e-08   -6.053e-07  
  1.3300e-08   -6.052e-07  
  1.3400e-08   -6.053e-07  
  1.3500e-08   -6.053e-07  
  1.3600e-08   -6.053e-07  
  1.3700e-08   -6.053e-07  
  1.3800e-08   -6.053e-07  
  1.3900e-08   -6.053e-07  
  1.4000e-08   -6.053e-07  
  1.4100e-08   -6.053e-07  
  1.4200e-08   -6.052e-07  
  1.4300e-08   -6.052e-07  
  1.4400e-08   -6.051e-07  
  1.4500e-08   -6.051e-07  
  1.4600e-08   -6.050e-07  
  1.4700e-08   -6.049e-07  
  1.4800e-08   -6.049e-07  
  1.4900e-08   -6.048e-07  
  1.5000e-08   -6.047e-07  
  1.5100e-08   -5.795e-07  
  1.5200e-08   -6.040e-07  
  1.5300e-08   -6.044e-07  
  1.5400e-08   -6.045e-07  
  1.5500e-08   -6.045e-07  
  1.5600e-08   -6.045e-07  
  1.5700e-08   -6.045e-07  
  1.5800e-08   -6.045e-07  
  1.5900e-08   -6.045e-07  
  1.6000e-08   -6.045e-07  
  1.6100e-08   -6.045e-07  
  1.6200e-08   -6.045e-07  
  1.6300e-08   -6.045e-07  
  1.6400e-08   -6.045e-07  
  1.6500e-08   -6.045e-07  
  1.6600e-08   -6.045e-07  
  1.6700e-08   -6.045e-07  
  1.6800e-08   -6.045e-07  
  1.6900e-08   -6.045e-07  
  1.7000e-08   -6.045e-07  
  1.7100e-08   -6.045e-07  
  1.7200e-08   -6.045e-07  
  1.7300e-08   -6.045e-07  
  1.7400e-08   -6.045e-07  
  1.7500e-08   -6.045e-07  
  1.7600e-08   -1.300e-07  
  1.7700e-08   -1.840e-09  
  1.7800e-08   -3.051e-09  
  1.7900e-08   -1.944e-09  
  1.8000e-08   -1.652e-09  
  1.8100e-08   -2.360e-09  
  1.8200e-08   -2.868e-09  
  1.8300e-08   -2.436e-09  
  1.8400e-08   -2.004e-09  
  1.8500e-08   -1.573e-09  
  1.8600e-08   -1.292e-09  
  1.8700e-08   -1.547e-09  
  1.8800e-08   -1.801e-09  
  1.8900e-08   -2.055e-09  
  1.9000e-08   -2.310e-09  
  1.9100e-08   -2.564e-09  
  1.9200e-08   -2.818e-09  
  1.9300e-08   -2.769e-09  
  1.9400e-08   -2.548e-09  
  1.9500e-08   -2.328e-09  
  1.9600e-08   -2.108e-09  
  1.9700e-08   -1.887e-09  
  1.9800e-08   -1.667e-09  
  1.9900e-08   -1.446e-09  
  2.0000e-08   -1.226e-09  
  2.0100e-08    7.631e-08  
  2.0200e-08   -6.371e-09  
  2.0300e-08   -5.849e-09  
  2.0400e-08   -5.688e-09  
  2.0500e-08   -6.036e-09  
  2.0600e-08   -6.384e-09  
  2.0700e-08   -6.646e-09  
  2.0800e-08   -6.496e-09  
  2.0900e-08   -6.345e-09  
  2.1000e-08   -6.195e-09  
  2.1100e-08   -6.045e-09  
  2.1200e-08   -5.895e-09  
  2.1300e-08   -5.745e-09  
  2.1400e-08   -5.595e-09  
  2.1500e-08   -5.501e-09  
  2.1600e-08   -5.616e-09  
  2.1700e-08   -5.730e-09  
  2.1800e-08   -5.845e-09  
  2.1900e-08   -5.959e-09  
  2.2000e-08   -6.074e-09  
  2.2100e-08   -6.188e-09  
  2.2200e-08   -6.303e-09  
  2.2300e-08   -6.417e-09  
  2.2400e-08   -6.532e-09  
  2.2500e-08   -6.646e-09  
  2.2600e-08   -7.110e-08  
  2.2700e-08   -5.623e-09  
  2.2800e-08   -6.485e-09  
  2.2900e-08   -5.531e-09  
  2.3000e-08   -5.349e-09  
  2.3100e-08   -5.758e-09  
  2.3200e-08   -6.168e-09  
  2.3300e-08   -6.578e-09  
  2.3400e-08   -6.983e-09  
  2.3500e-08   -6.800e-09  
  2.3600e-08   -6.617e-09  
  2.3700e-08   -6.433e-09  
  2.3800e-08   -6.250e-09  
  2.3900e-08   -6.067e-09  
  2.4000e-08   -5.884e-09  
  2.4100e-08   -5.701e-09  
  2.4200e-08   -5.517e-09  
  2.4300e-08   -5.334e-09  
  2.4400e-08   -5.151e-09  
  2.4500e-08   -5.396e-09  
  2.4600e-08   -5.712e-09  
  2.4700e-08   -6.027e-09  
  2.4800e-08   -6.343e-09  
  2.4900e-08   -6.659e-09  
  2.5000e-08   -6.975e-09  
  2.5100e-08    3.421e-09  
  2.5200e-08   -6.138e-09  
  2.5300e-08   -5.968e-09  
  2.5400e-08   -6.014e-09  
  2.5500e-08   -6.066e-09  
  2.5600e-08   -6.119e-09  
  2.5700e-08   -6.155e-09  
  2.5800e-08   -6.138e-09  
  2.5900e-08   -6.122e-09  
  2.6000e-08   -6.105e-09  
  2.6100e-08   -6.089e-09  
  2.6200e-08   -6.072e-09  
  2.6300e-08   -6.056e-09  
  2.6400e-08   -6.039e-09  
  2.6500e-08   -6.023e-09  
  2.6600e-08   -6.006e-09  
  2.6700e-08   -5.990e-09  
  2.6800e-08   -5.973e-09  
  2.6900e-08   -5.972e-09  
  2.7000e-08   -6.003e-09  
  2.7100e-08   -6.033e-09  
  2.7200e-08   -6.064e-09  
  2.7300e-08   -6.095e-09  
  2.7400e-08   -6.126e-09  
  2.7500e-08   -6.157e-09  
  2.7600e-08   -2.477e-07  
  2.7700e-08   -4.354e-09  
  2.7800e-08   -3.345e-09  
  2.7900e-08   -3.470e-09  
  2.8000e-08   -3.821e-09  
  2.8100e-08   -3.219e-09  
  2.8200e-08   -2.616e-09  
  2.8300e-08   -2.795e-09  
  2.8400e-08   -3.111e-09  
  2.8500e-08   -3.428e-09  
  2.8600e-08   -3.744e-09  
  2.8700e-08   -3.624e-09  
  2.8800e-08   -3.417e-09  
  2.8900e-08   -3.210e-09  
  2.9000e-08   -3.002e-09  
  2.9100e-08   -2.795e-09  
  2.9200e-08   -2.588e-09  
  2.9300e-08   -2.499e-09  
  2.9400e-08   -2.680e-09  
  2.9500e-08   -2.861e-09  
  2.9600e-08   -3.042e-09  
  2.9700e-08   -3.223e-09  
  2.9800e-08   -3.404e-09  
  2.9900e-08   -3.585e-09  
  3.0000e-08   -3.766e-09  
  3.0100e-08   -2.100e-09  
  3.0200e-08   -3.001e-09  
  3.0300e-08   -3.196e-09  
  3.0400e-08   -3.122e-09  
  3.0500e-08   -3.047e-09  
  3.0600e-08   -2.987e-09  
  3.0700e-08   -3.010e-09  
  3.0800e-08   -3.032e-09  
  3.0900e-08   -3.054e-09  
  3.1000e-08   -3.077e-09  
  3.1100e-08   -3.099e-09  
  3.1200e-08   -3.121e-09  
  3.1300e-08   -3.144e-09  
  3.1400e-08   -3.166e-09  
  3.1500e-08   -3.188e-09  
  3.1600e-08   -3.191e-09  
  3.1700e-08   -3.168e-09  
  3.1800e-08   -3.144e-09  
  3.1900e-08   -3.121e-09  
  3.2000e-08   -3.098e-09  
  3.2100e-08   -3.074e-09  
  3.2200e-08   -3.051e-09  
  3.2300e-08   -3.028e-09  
  3.2400e-08   -3.005e-09  
  3.2500e-08   -2.981e-09  
  3.2600e-08   -1.681e-08  
  3.2700e-08   -3.105e-09  
  3.2800e-08   -3.086e-09  
  3.2900e-08   -3.073e-09  
  3.3000e-08   -3.078e-09  
  3.3100e-08   -3.085e-09  
  3.3200e-08   -3.091e-09  
  3.3300e-08   -3.097e-09  
  3.3400e-08   -3.103e-09  
  3.3500e-08   -3.106e-09  
  3.3600e-08   -3.103e-09  
  3.3700e-08   -3.100e-09  
  3.3800e-08   -3.097e-09  
  3.3900e-08   -3.094e-09  
  3.4000e-08   -3.091e-09  
  3.4100e-08   -3.088e-09  
  3.4200e-08   -3.085e-09  
  3.4300e-08   -3.082e-09  
  3.4400e-08   -3.079e-09  
  3.4500e-08   -3.076e-09  
  3.4600e-08   -3.073e-09  
  3.4700e-08   -3.070e-09  
  3.4800e-08   -3.067e-09  
  3.4900e-08   -3.090e-09  
  3.5000e-08   -3.115e-09  
  3.5100e-08   -3.105e-09  
  3.5200e-08   -3.096e-09  
  3.5300e-08   -3.086e-09  
  3.5400e-08   -3.086e-09  
  3.5500e-08   -3.086e-09  
  3.5600e-08   -3.086e-09  
  3.5700e-08   -3.086e-09  
  3.5800e-08   -3.086e-09  
  3.5900e-08   -3.086e-09  
  3.6000e-08   -3.086e-09  
  3.6100e-08   -3.087e-09  
  3.6200e-08   -3.087e-09  
  3.6300e-08   -3.087e-09  
  3.6400e-08   -3.087e-09  
  3.6500e-08   -3.087e-09  
  3.6600e-08   -3.086e-09  
  3.6700e-08   -3.086e-09  
  3.6800e-08   -3.086e-09  
  3.6900e-08   -3.086e-09  
  3.7000e-08   -3.086e-09  
  3.7100e-08   -3.086e-09  
  3.7200e-08   -3.086e-09  
  3.7300e-08   -3.086e-09  
  3.7400e-08   -3.085e-09  
  3.7500e-08   -3.085e-09  
  3.7600e-08   -3.085e-09  
  3.7700e-08   -3.085e-09  
  3.7800e-08   -3.085e-09  
  3.7900e-08   -3.085e-09  
  3.8000e-08   -3.085e-09  
  3.8100e-08   -3.085e-09  
  3.8200e-08   -3.084e-09  
  3.8300e-08   -3.084e-09  
  3.8400e-08   -3.084e-09  
  3.8500e-08   -3.085e-09  
  3.8600e-08   -3.085e-09  
  3.8700e-08   -3.085e-09  
  3.8800e-08   -3.085e-09  
  3.8900e-08   -3.085e-09  
  3.9000e-08   -3.085e-09  
  3.9100e-08   -3.085e-09  
  3.9200e-08   -3.085e-09  
  3.9300e-08   -3.085e-09  
  3.9400e-08   -3.086e-09  
  3.9500e-08   -3.086e-09  
  3.9600e-08   -3.086e-09  
  3.9700e-08   -3.086e-09  
  3.9800e-08   -3.086e-09  
  3.9900e-08   -3.086e-09  
  4.0000e-08   -3.086e-09  
y
-----------------------------------------------

          ***** job concluded
1****** HSPICE -- H-2013.03 64-BIT (Mar  7 2013) win64 ******                   
 ******  
 'inverter'

  ******  job statistics summary tnom=  25.000 temp=  25.000 *****

  ******  HSPICE Threads Information  ******

  Command Line Threads Count :     1
  Available CPU Count        :     4
  Actual Threads Count       :     1


  ******  Circuit Statistics  ******
  # nodes       =     519 # elements   =    1176
  # resistors   =     216 # capacitors =     522 # inductors   =       0
  # mutual_inds =       0 # vccs       =     144 # vcvs        =     252
  # cccs        =       0 # ccvs       =       0 # volt_srcs   =      42
  # curr_srcs   =       0 # diodes     =       0 # bjts        =       0
  # jfets       =       0 # mosfets    =       0 # U elements  =       0
  # T elements  =       0 # W elements =       0 # B elements  =       0
  # S elements  =       0 # P elements =       0 # va device   =       0
  # vector_srcs =       0 # N elements =       0


  ******  Runtime Statistics (seconds)  ******

  analysis           time    # points   tot. iter  conv.iter
  op point           7.81           1         315
  transient         13.07         401         638         203 rev=        10
  readin             0.05
  errchk             0.28
  setup              0.01
  output             0.00


           peak memory used         52.87 megabytes
           total cpu time           21.22 seconds
           total elapsed time       21.31 seconds
           job started at     21:39:41 02/26/2018
           job ended   at     21:40:03 02/26/2018


  lic: Release hspice token(s) 
 lic: total license checkout elapse time:        0.02(s)
