 ****** HSPICE -- H-2013.03 64-BIT (Mar  7 2013) win64 ******                   
  Copyright (C) 2013 Synopsys, Inc. All Rights Reserved.                        
  Unpublished-rights reserved under US copyright laws.
  This program is protected by law and is subject to the
  terms and conditions of the license agreement from Synopsys.
  Use of this program is your acceptance to be bound by the
  license agreement. HSPICE is the trademark of Synopsys, Inc.
  Input File: sram1.sp                                                          
  Command line options: -i sram1.sp -o sram1.lis
  lic:  
  lic: FLEXlm: v10.9.8 
  lic: USER:   Dell                 HOSTNAME: DESKTOP-O3DHVG1 
  lic: HOSTID: "28f10e041fd4 a0d37a293ca4 a0d37a293ca5" PID:      10232 
  lic: Using FLEXlm license file: 
  lic: C:\synopsys\Hspice_H-2013.03\lic.dat\lic.lic 
  lic: Checkout 1 hspice 
  lic: License/Maintenance for hspice will expire on 31-dec-2019/2019.12 
  lic: NODE LOCKED license on hostid "28f10e041fd4 a0d37a293ca4 a0d37a293ca5" 
  lic:   
 Init: read install configuration file: C:\synopsys\Hspice_H-2013.03\meta.cfg
 scientific notation:
 a=10**-18  f=10**-15  p=10**-12  n=10**-9  u=10**-6
 m=10**-3   k=10**3    x=10**6    g=10**9 
1****** HSPICE -- H-2013.03 64-BIT (Mar  7 2013) win64 ******                   
 ******  
 'inverter'

  ******  circuit name directory
 circuit number to circuit name directory
   number circuitname                     definition         multiplier
        0 main circuit


 circuit parameter definitions
  parameter          =  value 

     0:temp                                                    = 2.700e+01      
     0:m_cnt                                                   = 1.000e+00      
     0:wg                                                      = 4.000e-09      
     0:cb                                                      = 4.000e-11      
     0:lg                                                      = 1.000e-08      
     0:lgef                                                    = 1.000e-07      
     0:vfn                                                     = 0.000e+00      
     0:vfp                                                     = 0.000e+00      
     0:m                                                       = 0.000e+00      
     0:n                                                       = 1.900e+01      
     0:hox                                                     = 4.000e-09      
     1:tox                                                     = 4.000e-09      
     1:csub                                                    = 4.000e-11      
     1:pitch                                                   = 2.000e-08      
     1:n1                                                      = 0.000e+00      
     1:n2                                                      = 1.900e+01      
     1:vfbp                                                    = 0.000e+00      
     1:kgate                                                   = 1.600e+01      
     1:dout                                                    = 0.000e+00      
     1:sout                                                    = 0.000e+00      
     1:tubes                                                   = 1.000e+00      
     1:lch                                                     = 1.000e-08      
     1:lgeff                                                   = 1.000e-07      
     1:lss                                                     = 3.200e-08      
     1:ldd                                                     = 3.200e-08      
     2:tox                                                     = 4.000e-09      
     2:csub                                                    = 4.000e-11      
     2:pitch                                                   = 2.000e-08      
     2:n1                                                      = 0.000e+00      
     2:n2                                                      = 1.000e+01      
     2:vfbp                                                    = 0.000e+00      
     2:kgate                                                   = 1.600e+01      
     2:dout                                                    = 0.000e+00      
     2:sout                                                    = 0.000e+00      
     2:tubes                                                   = 1.000e+00      
     2:lch                                                     = 1.000e-08      
     2:lgeff                                                   = 1.000e-07      
     2:lss                                                     = 3.200e-08      
     2:ldd                                                     = 3.200e-08      
     3:tox                                                     = 4.000e-09      
     3:csub                                                    = 4.000e-11      
     3:pitch                                                   = 2.000e-08      
     3:n1                                                      = 0.000e+00      
     3:n2                                                      = 1.300e+01      
     3:vfbp                                                    = 0.000e+00      
     3:kgate                                                   = 1.600e+01      
     3:dout                                                    = 0.000e+00      
     3:sout                                                    = 0.000e+00      
     3:tubes                                                   = 1.000e+00      
     3:lch                                                     = 1.000e-08      
     3:lgeff                                                   = 1.000e-07      
     3:lss                                                     = 3.200e-08      
     3:ldd                                                     = 3.200e-08      
     4:tox                                                     = 4.000e-09      
     4:csub                                                    = 4.000e-11      
     4:vfbn                                                    = 0.000e+00      
     4:pitch                                                   = 2.000e-08      
     4:n1                                                      = 0.000e+00      
     4:n2                                                      = 1.300e+01      
     4:kgate                                                   = 1.600e+01      
     4:dout                                                    = 0.000e+00      
     4:sout                                                    = 0.000e+00      
     4:tubes                                                   = 1.000e+00      
     4:lch                                                     = 1.000e-08      
     4:lgeff                                                   = 1.000e-07      
     4:lss                                                     = 3.200e-08      
     4:ldd                                                     = 3.200e-08      
     5:tox                                                     = 4.000e-09      
     5:csub                                                    = 4.000e-11      
     5:vfbn                                                    = 0.000e+00      
     5:pitch                                                   = 2.000e-08      
     5:n1                                                      = 0.000e+00      
     5:n2                                                      = 1.900e+01      
     5:kgate                                                   = 1.600e+01      
     5:dout                                                    = 0.000e+00      
     5:sout                                                    = 0.000e+00      
     5:tubes                                                   = 1.000e+00      
     5:lch                                                     = 1.000e-08      
     5:lgeff                                                   = 1.000e-07      
     5:lss                                                     = 3.200e-08      
     5:ldd                                                     = 3.200e-08      
     6:tox                                                     = 4.000e-09      
     6:csub                                                    = 4.000e-11      
     6:vfbn                                                    = 0.000e+00      
     6:pitch                                                   = 2.000e-08      
     6:n1                                                      = 0.000e+00      
     6:n2                                                      = 1.000e+01      
     6:kgate                                                   = 1.600e+01      
     6:dout                                                    = 0.000e+00      
     6:sout                                                    = 0.000e+00      
     6:tubes                                                   = 1.000e+00      
     6:lch                                                     = 1.000e-08      
     6:lgeff                                                   = 1.000e-07      
     6:lss                                                     = 3.200e-08      
     6:ldd                                                     = 3.200e-08      




 constants  - tnom         kt           vt           gapsi        ni
            2.9815e+02   4.1163e-21   2.5692e-02   1.1156e+00   1.2565e+16 
  **info** (sram1.sp:113) DC voltage reset to initial transient source value              in source        0:vwbl                new dc=  0.0000D+00

 **warning**  associated with encrypted block(s) were suppressed due to encrypted content

1****** HSPICE -- H-2013.03 64-BIT (Mar  7 2013) win64 ******                   
 ******  
 'inverter'

  ******  circuit element summary tnom=  25.000 temp=  25.000 *****


 **** independent sources

     name         node1        node2      dc volt    ac mag    ac phase    type
  vdd  vdd               0                  9.000e-01  0.000e+00  0.000e+00 dc   
  vwbl  wbl               0                  0.000e+00  0.000e+00  0.000e+00 pwl  
                time        value

                 0.000e+00    0.000e+00
                 5.000e-09    0.000e+00
                 5.100e-09    9.000e-01
                 1.000e-08    9.000e-01


  vwwl  wwl               0                  0.000e+00  0.000e+00  0.000e+00 pwl  
                time        value

                 0.000e+00    0.000e+00
                 7.500e-09    0.000e+00
                 7.600e-09    9.000e-01
                 1.000e-08    9.000e-01


  vwwlb  wwlb              0                  9.000e-01  0.000e+00  0.000e+00 pwl  
                time        value

                 0.000e+00    9.000e-01
                 7.500e-09    9.000e-01
                 7.600e-09    0.000e+00
                 1.000e-08    0.000e+00




 **** subcircuit calls
    name        subcircuit         external nodes


         0:xcnt7    pcnfet          0:vdd         0:q           0:n2      
                               0:n2      


         0:xcnt8    pcnfet          0:vdd         0:q           0:qb      
                               0:qb      


         0:xcnt6    pcnfet          0:qb          0:qb          0:n2      
                               0:n2      


         0:xcnt5    ncnfet          0:qb          0:qb          0:n1      
                               0:n1      


         0:xcnt3    ncnfet          0:n1          0:q           0:0       
                               0:0       


         0:xcnt4    ncnfet          0:qb          0:q           0:0       
                               0:0       


         0:xcnt14   pcnfet          0:vdd         0:qb          0:q       
                               0:q       


         0:xcnt13   pcnfet          0:vdd         0:qb          0:n4      
                               0:n4      


         0:xcnt12   pcnfet          0:q           0:q           0:n4      
                               0:n4      


         0:xcnt11   ncnfet          0:q           0:q           0:n3      
                               0:n3      


         0:xcnt10   ncnfet          0:q           0:qb          0:0       
                               0:0       


         0:xcnt9    ncnfet          0:n3          0:qb          0:0       
                               0:0       


         0:xcnt2    pcnfet          0:q           0:wwlb        0:wbl     
                               0:wbl     


         0:xcnt1    ncnfet          0:q           0:wwl         0:wbl     
                               0:wbl     


  
1****** HSPICE -- H-2013.03 64-BIT (Mar  7 2013) win64 ******                   
 ******  
 'inverter'

  ******  element node table
                                                                                      
 0                vdd              vwbl             vwwl             vwwlb            
 vdd              vdd                                                                 
 wbl              vwbl                                                                
 wwl              vwwl                                                                
 wwlb             vwwlb                                                               
  **warning** PIVOT option setting is simplified, pivot = 13 is obsolete,
              automatically switch to pivot = 1.
 *****************************************************************
 ******  option summary
 ******
 runlvl  = 3         bypass  = 2         
  Opening plot unit= 79
 file=sram1.pa0

1****** HSPICE -- H-2013.03 64-BIT (Mar  7 2013) win64 ******                   
 ******  
 'inverter'

  ******  operating point information tnom=  25.000 temp=  25.000 *****
 ***** operating point status is voltage   simulation time is   0.000e+00
     node    =voltage       node    =voltage       node    =voltage

 + 0:n1      = 9.439e-02  0:n2      = 8.974e-01  0:n3      = 3.600e-03
 + 0:n4      = 8.134e-01  0:q       = 3.834e-01  0:qb      = 5.331e-01
 + 0:vdd     = 9.000e-01  0:wbl     = 0.000e+00  0:wwl     = 0.000e+00
 + 0:wwlb    = 9.000e-01

 ******  
 'inverter'

  ******  transient analysis tnom=  25.000 temp=  25.000 *****
x

        time    voltage      voltage      voltage    
                    wbl           q           qb     
  0.0000e+00    0.000e+00    3.834e-01    5.331e-01  
  1.0000e-11    0.000e+00    3.834e-01    5.331e-01  
  2.0000e-11    0.000e+00    3.834e-01    5.331e-01  
  3.0000e-11    0.000e+00    3.834e-01    5.331e-01  
  4.0000e-11    0.000e+00    3.834e-01    5.331e-01  
  5.0000e-11    0.000e+00    3.834e-01    5.331e-01  
  6.0000e-11    0.000e+00    3.834e-01    5.331e-01  
  7.0000e-11    0.000e+00    3.834e-01    5.331e-01  
  8.0000e-11    0.000e+00    3.834e-01    5.331e-01  
  9.0000e-11    0.000e+00    3.834e-01    5.331e-01  
  1.0000e-10    0.000e+00    3.834e-01    5.331e-01  
  1.1000e-10    0.000e+00    3.834e-01    5.331e-01  
  1.2000e-10    0.000e+00    3.834e-01    5.331e-01  
  1.3000e-10    0.000e+00    3.834e-01    5.331e-01  
  1.4000e-10    0.000e+00    3.834e-01    5.331e-01  
  1.5000e-10    0.000e+00    3.834e-01    5.331e-01  
  1.6000e-10    0.000e+00    3.834e-01    5.331e-01  
  1.7000e-10    0.000e+00    3.834e-01    5.331e-01  
  1.8000e-10    0.000e+00    3.834e-01    5.331e-01  
  1.9000e-10    0.000e+00    3.834e-01    5.331e-01  
  2.0000e-10    0.000e+00    3.834e-01    5.331e-01  
  2.1000e-10    0.000e+00    3.834e-01    5.331e-01  
  2.2000e-10    0.000e+00    3.834e-01    5.331e-01  
  2.3000e-10    0.000e+00    3.834e-01    5.331e-01  
  2.4000e-10    0.000e+00    3.834e-01    5.331e-01  
  2.5000e-10    0.000e+00    3.834e-01    5.331e-01  
  2.6000e-10    0.000e+00    3.834e-01    5.331e-01  
  2.7000e-10    0.000e+00    3.834e-01    5.331e-01  
  2.8000e-10    0.000e+00    3.834e-01    5.331e-01  
  2.9000e-10    0.000e+00    3.834e-01    5.331e-01  
  3.0000e-10    0.000e+00    3.834e-01    5.331e-01  
  3.1000e-10    0.000e+00    3.834e-01    5.331e-01  
  3.2000e-10    0.000e+00    3.834e-01    5.331e-01  
  3.3000e-10    0.000e+00    3.834e-01    5.331e-01  
  3.4000e-10    0.000e+00    3.834e-01    5.331e-01  
  3.5000e-10    0.000e+00    3.834e-01    5.331e-01  
  3.6000e-10    0.000e+00    3.834e-01    5.331e-01  
  3.7000e-10    0.000e+00    3.834e-01    5.331e-01  
  3.8000e-10    0.000e+00    3.834e-01    5.331e-01  
  3.9000e-10    0.000e+00    3.834e-01    5.331e-01  
  4.0000e-10    0.000e+00    3.834e-01    5.331e-01  
  4.1000e-10    0.000e+00    3.834e-01    5.331e-01  
  4.2000e-10    0.000e+00    3.834e-01    5.331e-01  
  4.3000e-10    0.000e+00    3.834e-01    5.331e-01  
  4.4000e-10    0.000e+00    3.834e-01    5.331e-01  
  4.5000e-10    0.000e+00    3.834e-01    5.331e-01  
  4.6000e-10    0.000e+00    3.834e-01    5.331e-01  
  4.7000e-10    0.000e+00    3.834e-01    5.331e-01  
  4.8000e-10    0.000e+00    3.834e-01    5.331e-01  
  4.9000e-10    0.000e+00    3.834e-01    5.331e-01  
  5.0000e-10    0.000e+00    3.834e-01    5.331e-01  
  5.1000e-10    0.000e+00    3.834e-01    5.331e-01  
  5.2000e-10    0.000e+00    3.834e-01    5.331e-01  
  5.3000e-10    0.000e+00    3.834e-01    5.331e-01  
  5.4000e-10    0.000e+00    3.834e-01    5.331e-01  
  5.5000e-10    0.000e+00    3.834e-01    5.331e-01  
  5.6000e-10    0.000e+00    3.834e-01    5.331e-01  
  5.7000e-10    0.000e+00    3.834e-01    5.331e-01  
  5.8000e-10    0.000e+00    3.834e-01    5.331e-01  
  5.9000e-10    0.000e+00    3.834e-01    5.331e-01  
  6.0000e-10    0.000e+00    3.834e-01    5.331e-01  
  6.1000e-10    0.000e+00    3.834e-01    5.331e-01  
  6.2000e-10    0.000e+00    3.834e-01    5.331e-01  
  6.3000e-10    0.000e+00    3.834e-01    5.331e-01  
  6.4000e-10    0.000e+00    3.834e-01    5.331e-01  
  6.5000e-10    0.000e+00    3.834e-01    5.331e-01  
  6.6000e-10    0.000e+00    3.834e-01    5.331e-01  
  6.7000e-10    0.000e+00    3.834e-01    5.331e-01  
  6.8000e-10    0.000e+00    3.834e-01    5.331e-01  
  6.9000e-10    0.000e+00    3.834e-01    5.331e-01  
  7.0000e-10    0.000e+00    3.834e-01    5.331e-01  
  7.1000e-10    0.000e+00    3.834e-01    5.331e-01  
  7.2000e-10    0.000e+00    3.834e-01    5.331e-01  
  7.3000e-10    0.000e+00    3.834e-01    5.331e-01  
  7.4000e-10    0.000e+00    3.834e-01    5.331e-01  
  7.5000e-10    0.000e+00    3.834e-01    5.331e-01  
  7.6000e-10    0.000e+00    3.834e-01    5.331e-01  
  7.7000e-10    0.000e+00    3.834e-01    5.331e-01  
  7.8000e-10    0.000e+00    3.834e-01    5.331e-01  
  7.9000e-10    0.000e+00    3.834e-01    5.331e-01  
  8.0000e-10    0.000e+00    3.834e-01    5.331e-01  
  8.1000e-10    0.000e+00    3.834e-01    5.331e-01  
  8.2000e-10    0.000e+00    3.834e-01    5.331e-01  
  8.3000e-10    0.000e+00    3.834e-01    5.331e-01  
  8.4000e-10    0.000e+00    3.834e-01    5.331e-01  
  8.5000e-10    0.000e+00    3.834e-01    5.331e-01  
  8.6000e-10    0.000e+00    3.834e-01    5.331e-01  
  8.7000e-10    0.000e+00    3.834e-01    5.331e-01  
  8.8000e-10    0.000e+00    3.834e-01    5.331e-01  
  8.9000e-10    0.000e+00    3.834e-01    5.331e-01  
  9.0000e-10    0.000e+00    3.834e-01    5.331e-01  
  9.1000e-10    0.000e+00    3.834e-01    5.331e-01  
  9.2000e-10    0.000e+00    3.834e-01    5.331e-01  
  9.3000e-10    0.000e+00    3.834e-01    5.331e-01  
  9.4000e-10    0.000e+00    3.834e-01    5.331e-01  
  9.5000e-10    0.000e+00    3.834e-01    5.331e-01  
  9.6000e-10    0.000e+00    3.834e-01    5.331e-01  
  9.7000e-10    0.000e+00    3.834e-01    5.331e-01  
  9.8000e-10    0.000e+00    3.834e-01    5.331e-01  
  9.9000e-10    0.000e+00    3.834e-01    5.331e-01  
  1.0000e-09    0.000e+00    3.834e-01    5.331e-01  
  1.0100e-09    0.000e+00    3.834e-01    5.331e-01  
  1.0200e-09    0.000e+00    3.834e-01    5.331e-01  
  1.0300e-09    0.000e+00    3.834e-01    5.331e-01  
  1.0400e-09    0.000e+00    3.834e-01    5.331e-01  
  1.0500e-09    0.000e+00    3.834e-01    5.331e-01  
  1.0600e-09    0.000e+00    3.834e-01    5.331e-01  
  1.0700e-09    0.000e+00    3.834e-01    5.331e-01  
  1.0800e-09    0.000e+00    3.834e-01    5.331e-01  
  1.0900e-09    0.000e+00    3.834e-01    5.331e-01  
  1.1000e-09    0.000e+00    3.834e-01    5.331e-01  
  1.1100e-09    0.000e+00    3.834e-01    5.331e-01  
  1.1200e-09    0.000e+00    3.834e-01    5.331e-01  
  1.1300e-09    0.000e+00    3.834e-01    5.331e-01  
  1.1400e-09    0.000e+00    3.834e-01    5.331e-01  
  1.1500e-09    0.000e+00    3.834e-01    5.331e-01  
  1.1600e-09    0.000e+00    3.834e-01    5.331e-01  
  1.1700e-09    0.000e+00    3.834e-01    5.331e-01  
  1.1800e-09    0.000e+00    3.834e-01    5.331e-01  
  1.1900e-09    0.000e+00    3.834e-01    5.331e-01  
  1.2000e-09    0.000e+00    3.834e-01    5.331e-01  
  1.2100e-09    0.000e+00    3.834e-01    5.331e-01  
  1.2200e-09    0.000e+00    3.834e-01    5.331e-01  
  1.2300e-09    0.000e+00    3.834e-01    5.331e-01  
  1.2400e-09    0.000e+00    3.834e-01    5.331e-01  
  1.2500e-09    0.000e+00    3.834e-01    5.331e-01  
  1.2600e-09    0.000e+00    3.834e-01    5.331e-01  
  1.2700e-09    0.000e+00    3.834e-01    5.331e-01  
  1.2800e-09    0.000e+00    3.834e-01    5.331e-01  
  1.2900e-09    0.000e+00    3.834e-01    5.331e-01  
  1.3000e-09    0.000e+00    3.834e-01    5.331e-01  
  1.3100e-09    0.000e+00    3.834e-01    5.331e-01  
  1.3200e-09    0.000e+00    3.834e-01    5.331e-01  
  1.3300e-09    0.000e+00    3.834e-01    5.331e-01  
  1.3400e-09    0.000e+00    3.834e-01    5.331e-01  
  1.3500e-09    0.000e+00    3.834e-01    5.331e-01  
  1.3600e-09    0.000e+00    3.834e-01    5.331e-01  
  1.3700e-09    0.000e+00    3.834e-01    5.331e-01  
  1.3800e-09    0.000e+00    3.834e-01    5.331e-01  
  1.3900e-09    0.000e+00    3.834e-01    5.331e-01  
  1.4000e-09    0.000e+00    3.834e-01    5.331e-01  
  1.4100e-09    0.000e+00    3.834e-01    5.331e-01  
  1.4200e-09    0.000e+00    3.834e-01    5.331e-01  
  1.4300e-09    0.000e+00    3.834e-01    5.331e-01  
  1.4400e-09    0.000e+00    3.834e-01    5.331e-01  
  1.4500e-09    0.000e+00    3.834e-01    5.331e-01  
  1.4600e-09    0.000e+00    3.834e-01    5.331e-01  
  1.4700e-09    0.000e+00    3.834e-01    5.331e-01  
  1.4800e-09    0.000e+00    3.834e-01    5.331e-01  
  1.4900e-09    0.000e+00    3.834e-01    5.331e-01  
  1.5000e-09    0.000e+00    3.834e-01    5.331e-01  
  1.5100e-09    0.000e+00    3.834e-01    5.331e-01  
  1.5200e-09    0.000e+00    3.834e-01    5.331e-01  
  1.5300e-09    0.000e+00    3.834e-01    5.331e-01  
  1.5400e-09    0.000e+00    3.834e-01    5.331e-01  
  1.5500e-09    0.000e+00    3.834e-01    5.331e-01  
  1.5600e-09    0.000e+00    3.834e-01    5.331e-01  
  1.5700e-09    0.000e+00    3.834e-01    5.331e-01  
  1.5800e-09    0.000e+00    3.834e-01    5.331e-01  
  1.5900e-09    0.000e+00    3.834e-01    5.331e-01  
  1.6000e-09    0.000e+00    3.834e-01    5.331e-01  
  1.6100e-09    0.000e+00    3.834e-01    5.331e-01  
  1.6200e-09    0.000e+00    3.834e-01    5.331e-01  
  1.6300e-09    0.000e+00    3.834e-01    5.331e-01  
  1.6400e-09    0.000e+00    3.834e-01    5.331e-01  
  1.6500e-09    0.000e+00    3.834e-01    5.331e-01  
  1.6600e-09    0.000e+00    3.834e-01    5.331e-01  
  1.6700e-09    0.000e+00    3.834e-01    5.331e-01  
  1.6800e-09    0.000e+00    3.834e-01    5.331e-01  
  1.6900e-09    0.000e+00    3.834e-01    5.331e-01  
  1.7000e-09    0.000e+00    3.834e-01    5.331e-01  
  1.7100e-09    0.000e+00    3.834e-01    5.331e-01  
  1.7200e-09    0.000e+00    3.834e-01    5.331e-01  
  1.7300e-09    0.000e+00    3.834e-01    5.331e-01  
  1.7400e-09    0.000e+00    3.834e-01    5.331e-01  
  1.7500e-09    0.000e+00    3.834e-01    5.331e-01  
  1.7600e-09    0.000e+00    3.834e-01    5.331e-01  
  1.7700e-09    0.000e+00    3.834e-01    5.331e-01  
  1.7800e-09    0.000e+00    3.834e-01    5.331e-01  
  1.7900e-09    0.000e+00    3.834e-01    5.331e-01  
  1.8000e-09    0.000e+00    3.834e-01    5.331e-01  
  1.8100e-09    0.000e+00    3.834e-01    5.331e-01  
  1.8200e-09    0.000e+00    3.834e-01    5.331e-01  
  1.8300e-09    0.000e+00    3.834e-01    5.331e-01  
  1.8400e-09    0.000e+00    3.834e-01    5.331e-01  
  1.8500e-09    0.000e+00    3.834e-01    5.331e-01  
  1.8600e-09    0.000e+00    3.834e-01    5.331e-01  
  1.8700e-09    0.000e+00    3.834e-01    5.331e-01  
  1.8800e-09    0.000e+00    3.834e-01    5.331e-01  
  1.8900e-09    0.000e+00    3.834e-01    5.331e-01  
  1.9000e-09    0.000e+00    3.834e-01    5.331e-01  
  1.9100e-09    0.000e+00    3.834e-01    5.331e-01  
  1.9200e-09    0.000e+00    3.834e-01    5.331e-01  
  1.9300e-09    0.000e+00    3.834e-01    5.331e-01  
  1.9400e-09    0.000e+00    3.834e-01    5.331e-01  
  1.9500e-09    0.000e+00    3.834e-01    5.331e-01  
  1.9600e-09    0.000e+00    3.834e-01    5.331e-01  
  1.9700e-09    0.000e+00    3.834e-01    5.331e-01  
  1.9800e-09    0.000e+00    3.834e-01    5.331e-01  
  1.9900e-09    0.000e+00    3.834e-01    5.331e-01  
  2.0000e-09    0.000e+00    3.834e-01    5.331e-01  
  2.0100e-09    0.000e+00    3.834e-01    5.331e-01  
  2.0200e-09    0.000e+00    3.834e-01    5.331e-01  
  2.0300e-09    0.000e+00    3.834e-01    5.331e-01  
  2.0400e-09    0.000e+00    3.834e-01    5.331e-01  
  2.0500e-09    0.000e+00    3.834e-01    5.331e-01  
  2.0600e-09    0.000e+00    3.834e-01    5.331e-01  
  2.0700e-09    0.000e+00    3.834e-01    5.331e-01  
  2.0800e-09    0.000e+00    3.834e-01    5.331e-01  
  2.0900e-09    0.000e+00    3.834e-01    5.331e-01  
  2.1000e-09    0.000e+00    3.834e-01    5.331e-01  
  2.1100e-09    0.000e+00    3.834e-01    5.331e-01  
  2.1200e-09    0.000e+00    3.834e-01    5.331e-01  
  2.1300e-09    0.000e+00    3.834e-01    5.331e-01  
  2.1400e-09    0.000e+00    3.834e-01    5.331e-01  
  2.1500e-09    0.000e+00    3.834e-01    5.331e-01  
  2.1600e-09    0.000e+00    3.834e-01    5.331e-01  
  2.1700e-09    0.000e+00    3.834e-01    5.331e-01  
  2.1800e-09    0.000e+00    3.834e-01    5.331e-01  
  2.1900e-09    0.000e+00    3.834e-01    5.331e-01  
  2.2000e-09    0.000e+00    3.834e-01    5.331e-01  
  2.2100e-09    0.000e+00    3.834e-01    5.331e-01  
  2.2200e-09    0.000e+00    3.834e-01    5.331e-01  
  2.2300e-09    0.000e+00    3.834e-01    5.331e-01  
  2.2400e-09    0.000e+00    3.834e-01    5.331e-01  
  2.2500e-09    0.000e+00    3.834e-01    5.331e-01  
  2.2600e-09    0.000e+00    3.834e-01    5.331e-01  
  2.2700e-09    0.000e+00    3.834e-01    5.331e-01  
  2.2800e-09    0.000e+00    3.834e-01    5.331e-01  
  2.2900e-09    0.000e+00    3.834e-01    5.331e-01  
  2.3000e-09    0.000e+00    3.834e-01    5.331e-01  
  2.3100e-09    0.000e+00    3.834e-01    5.331e-01  
  2.3200e-09    0.000e+00    3.834e-01    5.331e-01  
  2.3300e-09    0.000e+00    3.834e-01    5.331e-01  
  2.3400e-09    0.000e+00    3.834e-01    5.331e-01  
  2.3500e-09    0.000e+00    3.834e-01    5.331e-01  
  2.3600e-09    0.000e+00    3.834e-01    5.331e-01  
  2.3700e-09    0.000e+00    3.834e-01    5.331e-01  
  2.3800e-09    0.000e+00    3.834e-01    5.330e-01  
  2.3900e-09    0.000e+00    3.834e-01    5.330e-01  
  2.4000e-09    0.000e+00    3.834e-01    5.330e-01  
  2.4100e-09    0.000e+00    3.834e-01    5.330e-01  
  2.4200e-09    0.000e+00    3.834e-01    5.330e-01  
  2.4300e-09    0.000e+00    3.834e-01    5.330e-01  
  2.4400e-09    0.000e+00    3.834e-01    5.330e-01  
  2.4500e-09    0.000e+00    3.834e-01    5.330e-01  
  2.4600e-09    0.000e+00    3.834e-01    5.330e-01  
  2.4700e-09    0.000e+00    3.834e-01    5.330e-01  
  2.4800e-09    0.000e+00    3.834e-01    5.330e-01  
  2.4900e-09    0.000e+00    3.834e-01    5.330e-01  
  2.5000e-09    0.000e+00    3.834e-01    5.330e-01  
  2.5100e-09    0.000e+00    3.834e-01    5.330e-01  
  2.5200e-09    0.000e+00    3.834e-01    5.330e-01  
  2.5300e-09    0.000e+00    3.834e-01    5.330e-01  
  2.5400e-09    0.000e+00    3.834e-01    5.330e-01  
  2.5500e-09    0.000e+00    3.834e-01    5.330e-01  
  2.5600e-09    0.000e+00    3.834e-01    5.330e-01  
  2.5700e-09    0.000e+00    3.834e-01    5.330e-01  
  2.5800e-09    0.000e+00    3.834e-01    5.330e-01  
  2.5900e-09    0.000e+00    3.834e-01    5.330e-01  
  2.6000e-09    0.000e+00    3.834e-01    5.330e-01  
  2.6100e-09    0.000e+00    3.834e-01    5.330e-01  
  2.6200e-09    0.000e+00    3.834e-01    5.330e-01  
  2.6300e-09    0.000e+00    3.834e-01    5.330e-01  
  2.6400e-09    0.000e+00    3.834e-01    5.330e-01  
  2.6500e-09    0.000e+00    3.834e-01    5.330e-01  
  2.6600e-09    0.000e+00    3.834e-01    5.330e-01  
  2.6700e-09    0.000e+00    3.834e-01    5.330e-01  
  2.6800e-09    0.000e+00    3.834e-01    5.330e-01  
  2.6900e-09    0.000e+00    3.834e-01    5.330e-01  
  2.7000e-09    0.000e+00    3.834e-01    5.330e-01  
  2.7100e-09    0.000e+00    3.834e-01    5.330e-01  
  2.7200e-09    0.000e+00    3.834e-01    5.330e-01  
  2.7300e-09    0.000e+00    3.834e-01    5.330e-01  
  2.7400e-09    0.000e+00    3.834e-01    5.330e-01  
  2.7500e-09    0.000e+00    3.834e-01    5.330e-01  
  2.7600e-09    0.000e+00    3.834e-01    5.330e-01  
  2.7700e-09    0.000e+00    3.834e-01    5.330e-01  
  2.7800e-09    0.000e+00    3.834e-01    5.330e-01  
  2.7900e-09    0.000e+00    3.834e-01    5.330e-01  
  2.8000e-09    0.000e+00    3.834e-01    5.330e-01  
  2.8100e-09    0.000e+00    3.834e-01    5.330e-01  
  2.8200e-09    0.000e+00    3.834e-01    5.330e-01  
  2.8300e-09    0.000e+00    3.834e-01    5.330e-01  
  2.8400e-09    0.000e+00    3.834e-01    5.330e-01  
  2.8500e-09    0.000e+00    3.834e-01    5.330e-01  
  2.8600e-09    0.000e+00    3.834e-01    5.330e-01  
  2.8700e-09    0.000e+00    3.834e-01    5.330e-01  
  2.8800e-09    0.000e+00    3.834e-01    5.330e-01  
  2.8900e-09    0.000e+00    3.834e-01    5.330e-01  
  2.9000e-09    0.000e+00    3.834e-01    5.330e-01  
  2.9100e-09    0.000e+00    3.834e-01    5.330e-01  
  2.9200e-09    0.000e+00    3.834e-01    5.330e-01  
  2.9300e-09    0.000e+00    3.834e-01    5.330e-01  
  2.9400e-09    0.000e+00    3.834e-01    5.330e-01  
  2.9500e-09    0.000e+00    3.834e-01    5.330e-01  
  2.9600e-09    0.000e+00    3.835e-01    5.330e-01  
  2.9700e-09    0.000e+00    3.835e-01    5.330e-01  
  2.9800e-09    0.000e+00    3.835e-01    5.330e-01  
  2.9900e-09    0.000e+00    3.835e-01    5.330e-01  
  3.0000e-09    0.000e+00    3.835e-01    5.330e-01  
  3.0100e-09    0.000e+00    3.835e-01    5.330e-01  
  3.0200e-09    0.000e+00    3.835e-01    5.330e-01  
  3.0300e-09    0.000e+00    3.835e-01    5.330e-01  
  3.0400e-09    0.000e+00    3.835e-01    5.330e-01  
  3.0500e-09    0.000e+00    3.835e-01    5.329e-01  
  3.0600e-09    0.000e+00    3.835e-01    5.329e-01  
  3.0700e-09    0.000e+00    3.835e-01    5.329e-01  
  3.0800e-09    0.000e+00    3.835e-01    5.329e-01  
  3.0900e-09    0.000e+00    3.835e-01    5.329e-01  
  3.1000e-09    0.000e+00    3.835e-01    5.329e-01  
  3.1100e-09    0.000e+00    3.835e-01    5.329e-01  
  3.1200e-09    0.000e+00    3.835e-01    5.329e-01  
  3.1300e-09    0.000e+00    3.835e-01    5.329e-01  
  3.1400e-09    0.000e+00    3.835e-01    5.329e-01  
  3.1500e-09    0.000e+00    3.835e-01    5.329e-01  
  3.1600e-09    0.000e+00    3.835e-01    5.329e-01  
  3.1700e-09    0.000e+00    3.835e-01    5.329e-01  
  3.1800e-09    0.000e+00    3.835e-01    5.329e-01  
  3.1900e-09    0.000e+00    3.835e-01    5.329e-01  
  3.2000e-09    0.000e+00    3.835e-01    5.329e-01  
  3.2100e-09    0.000e+00    3.835e-01    5.329e-01  
  3.2200e-09    0.000e+00    3.836e-01    5.329e-01  
  3.2300e-09    0.000e+00    3.836e-01    5.329e-01  
  3.2400e-09    0.000e+00    3.836e-01    5.329e-01  
  3.2500e-09    0.000e+00    3.836e-01    5.329e-01  
  3.2600e-09    0.000e+00    3.836e-01    5.328e-01  
  3.2700e-09    0.000e+00    3.836e-01    5.328e-01  
  3.2800e-09    0.000e+00    3.836e-01    5.328e-01  
  3.2900e-09    0.000e+00    3.836e-01    5.328e-01  
  3.3000e-09    0.000e+00    3.836e-01    5.328e-01  
  3.3100e-09    0.000e+00    3.836e-01    5.328e-01  
  3.3200e-09    0.000e+00    3.836e-01    5.328e-01  
  3.3300e-09    0.000e+00    3.836e-01    5.328e-01  
  3.3400e-09    0.000e+00    3.836e-01    5.328e-01  
  3.3500e-09    0.000e+00    3.836e-01    5.328e-01  
  3.3600e-09    0.000e+00    3.836e-01    5.328e-01  
  3.3700e-09    0.000e+00    3.836e-01    5.328e-01  
  3.3800e-09    0.000e+00    3.836e-01    5.328e-01  
  3.3900e-09    0.000e+00    3.836e-01    5.328e-01  
  3.4000e-09    0.000e+00    3.837e-01    5.327e-01  
  3.4100e-09    0.000e+00    3.837e-01    5.327e-01  
  3.4200e-09    0.000e+00    3.837e-01    5.326e-01  
  3.4300e-09    0.000e+00    3.838e-01    5.326e-01  
  3.4400e-09    0.000e+00    3.838e-01    5.325e-01  
  3.4500e-09    0.000e+00    3.838e-01    5.325e-01  
  3.4600e-09    0.000e+00    3.839e-01    5.325e-01  
  3.4700e-09    0.000e+00    3.839e-01    5.324e-01  
  3.4800e-09    0.000e+00    3.840e-01    5.324e-01  
  3.4900e-09    0.000e+00    3.840e-01    5.323e-01  
  3.5000e-09    0.000e+00    3.840e-01    5.323e-01  
  3.5100e-09    0.000e+00    3.841e-01    5.323e-01  
  3.5200e-09    0.000e+00    3.841e-01    5.322e-01  
  3.5300e-09    0.000e+00    3.841e-01    5.322e-01  
  3.5400e-09    0.000e+00    3.842e-01    5.321e-01  
  3.5500e-09    0.000e+00    3.842e-01    5.321e-01  
  3.5600e-09    0.000e+00    3.842e-01    5.320e-01  
  3.5700e-09    0.000e+00    3.843e-01    5.320e-01  
  3.5800e-09    0.000e+00    3.843e-01    5.320e-01  
  3.5900e-09    0.000e+00    3.843e-01    5.319e-01  
  3.6000e-09    0.000e+00    3.844e-01    5.319e-01  
  3.6100e-09    0.000e+00    3.844e-01    5.318e-01  
  3.6200e-09    0.000e+00    3.844e-01    5.318e-01  
  3.6300e-09    0.000e+00    3.845e-01    5.317e-01  
  3.6400e-09    0.000e+00    3.845e-01    5.317e-01  
  3.6500e-09    0.000e+00    3.845e-01    5.317e-01  
  3.6600e-09    0.000e+00    3.846e-01    5.316e-01  
  3.6700e-09    0.000e+00    3.846e-01    5.316e-01  
  3.6800e-09    0.000e+00    3.846e-01    5.315e-01  
  3.6900e-09    0.000e+00    3.847e-01    5.315e-01  
  3.7000e-09    0.000e+00    3.847e-01    5.314e-01  
  3.7100e-09    0.000e+00    3.847e-01    5.314e-01  
  3.7200e-09    0.000e+00    3.848e-01    5.314e-01  
  3.7300e-09    0.000e+00    3.848e-01    5.313e-01  
  3.7400e-09    0.000e+00    3.848e-01    5.313e-01  
  3.7500e-09    0.000e+00    3.849e-01    5.312e-01  
  3.7600e-09    0.000e+00    3.849e-01    5.312e-01  
  3.7700e-09    0.000e+00    3.849e-01    5.312e-01  
  3.7800e-09    0.000e+00    3.850e-01    5.311e-01  
  3.7900e-09    0.000e+00    3.850e-01    5.311e-01  
  3.8000e-09    0.000e+00    3.851e-01    5.310e-01  
  3.8100e-09    0.000e+00    3.851e-01    5.310e-01  
  3.8200e-09    0.000e+00    3.851e-01    5.309e-01  
  3.8300e-09    0.000e+00    3.852e-01    5.309e-01  
  3.8400e-09    0.000e+00    3.852e-01    5.309e-01  
  3.8500e-09    0.000e+00    3.852e-01    5.308e-01  
  3.8600e-09    0.000e+00    3.853e-01    5.308e-01  
  3.8700e-09    0.000e+00    3.853e-01    5.307e-01  
  3.8800e-09    0.000e+00    3.853e-01    5.307e-01  
  3.8900e-09    0.000e+00    3.855e-01    5.305e-01  
  3.9000e-09    0.000e+00    3.857e-01    5.303e-01  
  3.9100e-09    0.000e+00    3.858e-01    5.301e-01  
  3.9200e-09    0.000e+00    3.860e-01    5.298e-01  
  3.9300e-09    0.000e+00    3.862e-01    5.296e-01  
  3.9400e-09    0.000e+00    3.864e-01    5.294e-01  
  3.9500e-09    0.000e+00    3.866e-01    5.292e-01  
  3.9600e-09    0.000e+00    3.867e-01    5.289e-01  
  3.9700e-09    0.000e+00    3.869e-01    5.287e-01  
  3.9800e-09    0.000e+00    3.871e-01    5.285e-01  
  3.9900e-09    0.000e+00    3.873e-01    5.283e-01  
  4.0000e-09    0.000e+00    3.875e-01    5.280e-01  
  4.0100e-09    0.000e+00    3.877e-01    5.278e-01  
  4.0200e-09    0.000e+00    3.878e-01    5.276e-01  
  4.0300e-09    0.000e+00    3.880e-01    5.274e-01  
  4.0400e-09    0.000e+00    3.882e-01    5.271e-01  
  4.0500e-09    0.000e+00    3.884e-01    5.269e-01  
  4.0600e-09    0.000e+00    3.886e-01    5.267e-01  
  4.0700e-09    0.000e+00    3.887e-01    5.265e-01  
  4.0800e-09    0.000e+00    3.889e-01    5.262e-01  
  4.0900e-09    0.000e+00    3.891e-01    5.260e-01  
  4.1000e-09    0.000e+00    3.893e-01    5.258e-01  
  4.1100e-09    0.000e+00    3.895e-01    5.255e-01  
  4.1200e-09    0.000e+00    3.897e-01    5.253e-01  
  4.1300e-09    0.000e+00    3.898e-01    5.251e-01  
  4.1400e-09    0.000e+00    3.900e-01    5.249e-01  
  4.1500e-09    0.000e+00    3.902e-01    5.246e-01  
  4.1600e-09    0.000e+00    3.904e-01    5.244e-01  
  4.1700e-09    0.000e+00    3.906e-01    5.242e-01  
  4.1800e-09    0.000e+00    3.907e-01    5.240e-01  
  4.1900e-09    0.000e+00    3.909e-01    5.237e-01  
  4.2000e-09    0.000e+00    3.911e-01    5.235e-01  
  4.2100e-09    0.000e+00    3.913e-01    5.233e-01  
  4.2200e-09    0.000e+00    3.915e-01    5.231e-01  
  4.2300e-09    0.000e+00    3.917e-01    5.228e-01  
  4.2400e-09    0.000e+00    3.918e-01    5.226e-01  
  4.2500e-09    0.000e+00    3.920e-01    5.224e-01  
  4.2600e-09    0.000e+00    3.922e-01    5.222e-01  
  4.2700e-09    0.000e+00    3.924e-01    5.219e-01  
  4.2800e-09    0.000e+00    3.926e-01    5.217e-01  
  4.2900e-09    0.000e+00    3.928e-01    5.215e-01  
  4.3000e-09    0.000e+00    3.929e-01    5.213e-01  
  4.3100e-09    0.000e+00    3.931e-01    5.210e-01  
  4.3200e-09    0.000e+00    3.933e-01    5.208e-01  
  4.3300e-09    0.000e+00    3.935e-01    5.206e-01  
  4.3400e-09    0.000e+00    3.937e-01    5.204e-01  
  4.3500e-09    0.000e+00    3.938e-01    5.201e-01  
  4.3600e-09    0.000e+00    3.940e-01    5.199e-01  
  4.3700e-09    0.000e+00    3.942e-01    5.197e-01  
  4.3800e-09    0.000e+00    3.944e-01    5.195e-01  
  4.3900e-09    0.000e+00    3.947e-01    5.190e-01  
  4.4000e-09    0.000e+00    3.951e-01    5.186e-01  
  4.4100e-09    0.000e+00    3.955e-01    5.181e-01  
  4.4200e-09    0.000e+00    3.959e-01    5.176e-01  
  4.4300e-09    0.000e+00    3.963e-01    5.171e-01  
  4.4400e-09    0.000e+00    3.967e-01    5.166e-01  
  4.4500e-09    0.000e+00    3.971e-01    5.161e-01  
  4.4600e-09    0.000e+00    3.975e-01    5.156e-01  
  4.4700e-09    0.000e+00    3.979e-01    5.152e-01  
  4.4800e-09    0.000e+00    3.983e-01    5.147e-01  
  4.4900e-09    0.000e+00    3.987e-01    5.142e-01  
  4.5000e-09    0.000e+00    3.991e-01    5.137e-01  
  4.5100e-09    0.000e+00    3.995e-01    5.132e-01  
  4.5200e-09    0.000e+00    3.999e-01    5.127e-01  
  4.5300e-09    0.000e+00    4.003e-01    5.122e-01  
  4.5400e-09    0.000e+00    4.007e-01    5.117e-01  
  4.5500e-09    0.000e+00    4.011e-01    5.113e-01  
  4.5600e-09    0.000e+00    4.015e-01    5.108e-01  
  4.5700e-09    0.000e+00    4.019e-01    5.103e-01  
  4.5800e-09    0.000e+00    4.023e-01    5.098e-01  
  4.5900e-09    0.000e+00    4.027e-01    5.093e-01  
  4.6000e-09    0.000e+00    4.031e-01    5.088e-01  
  4.6100e-09    0.000e+00    4.035e-01    5.083e-01  
  4.6200e-09    0.000e+00    4.039e-01    5.078e-01  
  4.6300e-09    0.000e+00    4.043e-01    5.074e-01  
  4.6400e-09    0.000e+00    4.047e-01    5.069e-01  
  4.6500e-09    0.000e+00    4.051e-01    5.064e-01  
  4.6600e-09    0.000e+00    4.055e-01    5.059e-01  
  4.6700e-09    0.000e+00    4.059e-01    5.054e-01  
  4.6800e-09    0.000e+00    4.063e-01    5.049e-01  
  4.6900e-09    0.000e+00    4.067e-01    5.044e-01  
  4.7000e-09    0.000e+00    4.071e-01    5.040e-01  
  4.7100e-09    0.000e+00    4.075e-01    5.035e-01  
  4.7200e-09    0.000e+00    4.079e-01    5.030e-01  
  4.7300e-09    0.000e+00    4.083e-01    5.025e-01  
  4.7400e-09    0.000e+00    4.086e-01    5.020e-01  
  4.7500e-09    0.000e+00    4.090e-01    5.015e-01  
  4.7600e-09    0.000e+00    4.094e-01    5.010e-01  
  4.7700e-09    0.000e+00    4.098e-01    5.005e-01  
  4.7800e-09    0.000e+00    4.102e-01    5.001e-01  
  4.7900e-09    0.000e+00    4.106e-01    4.996e-01  
  4.8000e-09    0.000e+00    4.110e-01    4.991e-01  
  4.8100e-09    0.000e+00    4.114e-01    4.986e-01  
  4.8200e-09    0.000e+00    4.118e-01    4.981e-01  
  4.8300e-09    0.000e+00    4.122e-01    4.976e-01  
  4.8400e-09    0.000e+00    4.126e-01    4.971e-01  
  4.8500e-09    0.000e+00    4.130e-01    4.966e-01  
  4.8600e-09    0.000e+00    4.134e-01    4.962e-01  
  4.8700e-09    0.000e+00    4.138e-01    4.957e-01  
  4.8800e-09    0.000e+00    4.142e-01    4.952e-01  
  4.8900e-09    0.000e+00    4.147e-01    4.946e-01  
  4.9000e-09    0.000e+00    4.152e-01    4.941e-01  
  4.9100e-09    0.000e+00    4.156e-01    4.935e-01  
  4.9200e-09    0.000e+00    4.161e-01    4.929e-01  
  4.9300e-09    0.000e+00    4.166e-01    4.924e-01  
  4.9400e-09    0.000e+00    4.171e-01    4.918e-01  
  4.9500e-09    0.000e+00    4.175e-01    4.912e-01  
  4.9600e-09    0.000e+00    4.180e-01    4.907e-01  
  4.9700e-09    0.000e+00    4.185e-01    4.901e-01  
  4.9800e-09    0.000e+00    4.190e-01    4.895e-01  
  4.9900e-09    0.000e+00    4.194e-01    4.890e-01  
  5.0000e-09    0.000e+00    4.199e-01    4.884e-01  
  5.0100e-09    9.000e-02    4.333e-01    4.914e-01  
  5.0200e-09    1.800e-01    4.462e-01    4.939e-01  
  5.0300e-09    2.700e-01    4.574e-01    4.950e-01  
  5.0400e-09    3.600e-01    4.686e-01    4.959e-01  
  5.0500e-09    4.500e-01    4.789e-01    4.961e-01  
  5.0600e-09    5.400e-01    4.875e-01    4.950e-01  
  5.0700e-09    6.300e-01    4.962e-01    4.939e-01  
  5.0800e-09    7.200e-01    5.048e-01    4.928e-01  
  5.0900e-09    8.100e-01    5.134e-01    4.917e-01  
  5.1000e-09    9.000e-01    5.221e-01    4.906e-01  
  5.1100e-09    9.000e-01    5.161e-01    4.844e-01  
  5.1200e-09    9.000e-01    5.110e-01    4.793e-01  
  5.1300e-09    9.000e-01    5.064e-01    4.748e-01  
  5.1400e-09    9.000e-01    5.031e-01    4.717e-01  
  5.1500e-09    9.000e-01    5.002e-01    4.691e-01  
  5.1600e-09    9.000e-01    4.973e-01    4.665e-01  
  5.1700e-09    9.000e-01    4.945e-01    4.639e-01  
  5.1800e-09    9.000e-01    4.916e-01    4.613e-01  
  5.1900e-09    9.000e-01    4.889e-01    4.590e-01  
  5.2000e-09    9.000e-01    4.873e-01    4.578e-01  
  5.2100e-09    9.000e-01    4.858e-01    4.567e-01  
  5.2200e-09    9.000e-01    4.842e-01    4.555e-01  
  5.2300e-09    9.000e-01    4.826e-01    4.543e-01  
  5.2400e-09    9.000e-01    4.810e-01    4.532e-01  
  5.2500e-09    9.000e-01    4.795e-01    4.520e-01  
  5.2600e-09    9.000e-01    4.785e-01    4.515e-01  
  5.2700e-09    9.000e-01    4.776e-01    4.509e-01  
  5.2800e-09    9.000e-01    4.766e-01    4.504e-01  
  5.2900e-09    9.000e-01    4.757e-01    4.499e-01  
  5.3000e-09    9.000e-01    4.747e-01    4.494e-01  
  5.3100e-09    9.000e-01    4.738e-01    4.488e-01  
  5.3200e-09    9.000e-01    4.729e-01    4.483e-01  
  5.3300e-09    9.000e-01    4.719e-01    4.478e-01  
  5.3400e-09    9.000e-01    4.710e-01    4.473e-01  
  5.3500e-09    9.000e-01    4.701e-01    4.468e-01  
  5.3600e-09    9.000e-01    4.696e-01    4.467e-01  
  5.3700e-09    9.000e-01    4.691e-01    4.466e-01  
  5.3800e-09    9.000e-01    4.687e-01    4.465e-01  
  5.3900e-09    9.000e-01    4.682e-01    4.464e-01  
  5.4000e-09    9.000e-01    4.677e-01    4.463e-01  
  5.4100e-09    9.000e-01    4.673e-01    4.462e-01  
  5.4200e-09    9.000e-01    4.668e-01    4.461e-01  
  5.4300e-09    9.000e-01    4.663e-01    4.460e-01  
  5.4400e-09    9.000e-01    4.659e-01    4.460e-01  
  5.4500e-09    9.000e-01    4.654e-01    4.459e-01  
  5.4600e-09    9.000e-01    4.649e-01    4.458e-01  
  5.4700e-09    9.000e-01    4.645e-01    4.457e-01  
  5.4800e-09    9.000e-01    4.640e-01    4.456e-01  
  5.4900e-09    9.000e-01    4.638e-01    4.457e-01  
  5.5000e-09    9.000e-01    4.636e-01    4.458e-01  
  5.5100e-09    9.000e-01    4.634e-01    4.458e-01  
  5.5200e-09    9.000e-01    4.632e-01    4.459e-01  
  5.5300e-09    9.000e-01    4.630e-01    4.460e-01  
  5.5400e-09    9.000e-01    4.628e-01    4.461e-01  
  5.5500e-09    9.000e-01    4.626e-01    4.461e-01  
  5.5600e-09    9.000e-01    4.624e-01    4.462e-01  
  5.5700e-09    9.000e-01    4.622e-01    4.463e-01  
  5.5800e-09    9.000e-01    4.620e-01    4.464e-01  
  5.5900e-09    9.000e-01    4.617e-01    4.464e-01  
  5.6000e-09    9.000e-01    4.615e-01    4.465e-01  
  5.6100e-09    9.000e-01    4.613e-01    4.466e-01  
  5.6200e-09    9.000e-01    4.611e-01    4.467e-01  
  5.6300e-09    9.000e-01    4.609e-01    4.467e-01  
  5.6400e-09    9.000e-01    4.607e-01    4.468e-01  
  5.6500e-09    9.000e-01    4.605e-01    4.469e-01  
  5.6600e-09    9.000e-01    4.603e-01    4.470e-01  
  5.6700e-09    9.000e-01    4.601e-01    4.470e-01  
  5.6800e-09    9.000e-01    4.599e-01    4.471e-01  
  5.6900e-09    9.000e-01    4.597e-01    4.472e-01  
  5.7000e-09    9.000e-01    4.595e-01    4.473e-01  
  5.7100e-09    9.000e-01    4.593e-01    4.474e-01  
  5.7200e-09    9.000e-01    4.590e-01    4.474e-01  
  5.7300e-09    9.000e-01    4.589e-01    4.475e-01  
  5.7400e-09    9.000e-01    4.588e-01    4.476e-01  
  5.7500e-09    9.000e-01    4.588e-01    4.477e-01  
  5.7600e-09    9.000e-01    4.587e-01    4.478e-01  
  5.7700e-09    9.000e-01    4.586e-01    4.479e-01  
  5.7800e-09    9.000e-01    4.585e-01    4.479e-01  
  5.7900e-09    9.000e-01    4.584e-01    4.480e-01  
  5.8000e-09    9.000e-01    4.583e-01    4.481e-01  
  5.8100e-09    9.000e-01    4.582e-01    4.482e-01  
  5.8200e-09    9.000e-01    4.581e-01    4.483e-01  
  5.8300e-09    9.000e-01    4.580e-01    4.484e-01  
  5.8400e-09    9.000e-01    4.579e-01    4.485e-01  
  5.8500e-09    9.000e-01    4.579e-01    4.485e-01  
  5.8600e-09    9.000e-01    4.578e-01    4.486e-01  
  5.8700e-09    9.000e-01    4.577e-01    4.487e-01  
  5.8800e-09    9.000e-01    4.576e-01    4.488e-01  
  5.8900e-09    9.000e-01    4.575e-01    4.489e-01  
  5.9000e-09    9.000e-01    4.574e-01    4.490e-01  
  5.9100e-09    9.000e-01    4.573e-01    4.491e-01  
  5.9200e-09    9.000e-01    4.572e-01    4.491e-01  
  5.9300e-09    9.000e-01    4.571e-01    4.492e-01  
  5.9400e-09    9.000e-01    4.571e-01    4.493e-01  
  5.9500e-09    9.000e-01    4.570e-01    4.494e-01  
  5.9600e-09    9.000e-01    4.569e-01    4.495e-01  
  5.9700e-09    9.000e-01    4.568e-01    4.496e-01  
  5.9800e-09    9.000e-01    4.567e-01    4.497e-01  
  5.9900e-09    9.000e-01    4.566e-01    4.497e-01  
  6.0000e-09    9.000e-01    4.565e-01    4.498e-01  
  6.0100e-09    9.000e-01    4.565e-01    4.498e-01  
  6.0200e-09    9.000e-01    4.564e-01    4.499e-01  
  6.0300e-09    9.000e-01    4.564e-01    4.499e-01  
  6.0400e-09    9.000e-01    4.563e-01    4.500e-01  
  6.0500e-09    9.000e-01    4.563e-01    4.500e-01  
  6.0600e-09    9.000e-01    4.563e-01    4.501e-01  
  6.0700e-09    9.000e-01    4.562e-01    4.501e-01  
  6.0800e-09    9.000e-01    4.562e-01    4.501e-01  
  6.0900e-09    9.000e-01    4.561e-01    4.502e-01  
  6.1000e-09    9.000e-01    4.561e-01    4.502e-01  
  6.1100e-09    9.000e-01    4.560e-01    4.503e-01  
  6.1200e-09    9.000e-01    4.560e-01    4.503e-01  
  6.1300e-09    9.000e-01    4.559e-01    4.504e-01  
  6.1400e-09    9.000e-01    4.559e-01    4.504e-01  
  6.1500e-09    9.000e-01    4.558e-01    4.504e-01  
  6.1600e-09    9.000e-01    4.558e-01    4.505e-01  
  6.1700e-09    9.000e-01    4.557e-01    4.505e-01  
  6.1800e-09    9.000e-01    4.557e-01    4.506e-01  
  6.1900e-09    9.000e-01    4.556e-01    4.506e-01  
  6.2000e-09    9.000e-01    4.556e-01    4.507e-01  
  6.2100e-09    9.000e-01    4.555e-01    4.507e-01  
  6.2200e-09    9.000e-01    4.555e-01    4.508e-01  
  6.2300e-09    9.000e-01    4.554e-01    4.508e-01  
  6.2400e-09    9.000e-01    4.554e-01    4.508e-01  
  6.2500e-09    9.000e-01    4.553e-01    4.509e-01  
  6.2600e-09    9.000e-01    4.553e-01    4.509e-01  
  6.2700e-09    9.000e-01    4.552e-01    4.510e-01  
  6.2800e-09    9.000e-01    4.552e-01    4.510e-01  
  6.2900e-09    9.000e-01    4.551e-01    4.511e-01  
  6.3000e-09    9.000e-01    4.551e-01    4.511e-01  
  6.3100e-09    9.000e-01    4.550e-01    4.511e-01  
  6.3200e-09    9.000e-01    4.550e-01    4.512e-01  
  6.3300e-09    9.000e-01    4.550e-01    4.512e-01  
  6.3400e-09    9.000e-01    4.549e-01    4.513e-01  
  6.3500e-09    9.000e-01    4.549e-01    4.513e-01  
  6.3600e-09    9.000e-01    4.548e-01    4.514e-01  
  6.3700e-09    9.000e-01    4.548e-01    4.514e-01  
  6.3800e-09    9.000e-01    4.547e-01    4.514e-01  
  6.3900e-09    9.000e-01    4.547e-01    4.515e-01  
  6.4000e-09    9.000e-01    4.546e-01    4.515e-01  
  6.4100e-09    9.000e-01    4.546e-01    4.516e-01  
  6.4200e-09    9.000e-01    4.545e-01    4.516e-01  
  6.4300e-09    9.000e-01    4.545e-01    4.516e-01  
  6.4400e-09    9.000e-01    4.545e-01    4.517e-01  
  6.4500e-09    9.000e-01    4.545e-01    4.517e-01  
  6.4600e-09    9.000e-01    4.545e-01    4.517e-01  
  6.4700e-09    9.000e-01    4.544e-01    4.517e-01  
  6.4800e-09    9.000e-01    4.544e-01    4.517e-01  
  6.4900e-09    9.000e-01    4.544e-01    4.517e-01  
  6.5000e-09    9.000e-01    4.544e-01    4.518e-01  
  6.5100e-09    9.000e-01    4.544e-01    4.518e-01  
  6.5200e-09    9.000e-01    4.544e-01    4.518e-01  
  6.5300e-09    9.000e-01    4.543e-01    4.518e-01  
  6.5400e-09    9.000e-01    4.543e-01    4.518e-01  
  6.5500e-09    9.000e-01    4.543e-01    4.519e-01  
  6.5600e-09    9.000e-01    4.543e-01    4.519e-01  
  6.5700e-09    9.000e-01    4.543e-01    4.519e-01  
  6.5800e-09    9.000e-01    4.543e-01    4.519e-01  
  6.5900e-09    9.000e-01    4.542e-01    4.519e-01  
  6.6000e-09    9.000e-01    4.542e-01    4.519e-01  
  6.6100e-09    9.000e-01    4.542e-01    4.520e-01  
  6.6200e-09    9.000e-01    4.542e-01    4.520e-01  
  6.6300e-09    9.000e-01    4.542e-01    4.520e-01  
  6.6400e-09    9.000e-01    4.541e-01    4.520e-01  
  6.6500e-09    9.000e-01    4.541e-01    4.520e-01  
  6.6600e-09    9.000e-01    4.541e-01    4.521e-01  
  6.6700e-09    9.000e-01    4.541e-01    4.521e-01  
  6.6800e-09    9.000e-01    4.541e-01    4.521e-01  
  6.6900e-09    9.000e-01    4.541e-01    4.521e-01  
  6.7000e-09    9.000e-01    4.540e-01    4.521e-01  
  6.7100e-09    9.000e-01    4.540e-01    4.521e-01  
  6.7200e-09    9.000e-01    4.540e-01    4.522e-01  
  6.7300e-09    9.000e-01    4.540e-01    4.522e-01  
  6.7400e-09    9.000e-01    4.540e-01    4.522e-01  
  6.7500e-09    9.000e-01    4.540e-01    4.522e-01  
  6.7600e-09    9.000e-01    4.539e-01    4.522e-01  
  6.7700e-09    9.000e-01    4.539e-01    4.523e-01  
  6.7800e-09    9.000e-01    4.539e-01    4.523e-01  
  6.7900e-09    9.000e-01    4.539e-01    4.523e-01  
  6.8000e-09    9.000e-01    4.539e-01    4.523e-01  
  6.8100e-09    9.000e-01    4.539e-01    4.523e-01  
  6.8200e-09    9.000e-01    4.538e-01    4.524e-01  
  6.8300e-09    9.000e-01    4.538e-01    4.524e-01  
  6.8400e-09    9.000e-01    4.538e-01    4.524e-01  
  6.8500e-09    9.000e-01    4.538e-01    4.524e-01  
  6.8600e-09    9.000e-01    4.538e-01    4.524e-01  
  6.8700e-09    9.000e-01    4.538e-01    4.524e-01  
  6.8800e-09    9.000e-01    4.537e-01    4.525e-01  
  6.8900e-09    9.000e-01    4.537e-01    4.525e-01  
  6.9000e-09    9.000e-01    4.537e-01    4.525e-01  
  6.9100e-09    9.000e-01    4.537e-01    4.525e-01  
  6.9200e-09    9.000e-01    4.537e-01    4.525e-01  
  6.9300e-09    9.000e-01    4.537e-01    4.525e-01  
  6.9400e-09    9.000e-01    4.537e-01    4.525e-01  
  6.9500e-09    9.000e-01    4.537e-01    4.526e-01  
  6.9600e-09    9.000e-01    4.536e-01    4.526e-01  
  6.9700e-09    9.000e-01    4.536e-01    4.526e-01  
  6.9800e-09    9.000e-01    4.536e-01    4.526e-01  
  6.9900e-09    9.000e-01    4.536e-01    4.526e-01  
  7.0000e-09    9.000e-01    4.536e-01    4.526e-01  
  7.0100e-09    9.000e-01    4.536e-01    4.526e-01  
  7.0200e-09    9.000e-01    4.536e-01    4.526e-01  
  7.0300e-09    9.000e-01    4.536e-01    4.526e-01  
  7.0400e-09    9.000e-01    4.536e-01    4.526e-01  
  7.0500e-09    9.000e-01    4.536e-01    4.526e-01  
  7.0600e-09    9.000e-01    4.536e-01    4.526e-01  
  7.0700e-09    9.000e-01    4.536e-01    4.526e-01  
  7.0800e-09    9.000e-01    4.536e-01    4.526e-01  
  7.0900e-09    9.000e-01    4.536e-01    4.526e-01  
  7.1000e-09    9.000e-01    4.536e-01    4.526e-01  
  7.1100e-09    9.000e-01    4.536e-01    4.526e-01  
  7.1200e-09    9.000e-01    4.535e-01    4.526e-01  
  7.1300e-09    9.000e-01    4.535e-01    4.526e-01  
  7.1400e-09    9.000e-01    4.535e-01    4.526e-01  
  7.1500e-09    9.000e-01    4.535e-01    4.527e-01  
  7.1600e-09    9.000e-01    4.535e-01    4.527e-01  
  7.1700e-09    9.000e-01    4.535e-01    4.527e-01  
  7.1800e-09    9.000e-01    4.535e-01    4.527e-01  
  7.1900e-09    9.000e-01    4.535e-01    4.527e-01  
  7.2000e-09    9.000e-01    4.535e-01    4.527e-01  
  7.2100e-09    9.000e-01    4.535e-01    4.527e-01  
  7.2200e-09    9.000e-01    4.535e-01    4.527e-01  
  7.2300e-09    9.000e-01    4.535e-01    4.527e-01  
  7.2400e-09    9.000e-01    4.535e-01    4.527e-01  
  7.2500e-09    9.000e-01    4.535e-01    4.527e-01  
  7.2600e-09    9.000e-01    4.535e-01    4.527e-01  
  7.2700e-09    9.000e-01    4.535e-01    4.527e-01  
  7.2800e-09    9.000e-01    4.534e-01    4.527e-01  
  7.2900e-09    9.000e-01    4.534e-01    4.527e-01  
  7.3000e-09    9.000e-01    4.534e-01    4.527e-01  
  7.3100e-09    9.000e-01    4.534e-01    4.527e-01  
  7.3200e-09    9.000e-01    4.534e-01    4.527e-01  
  7.3300e-09    9.000e-01    4.534e-01    4.527e-01  
  7.3400e-09    9.000e-01    4.534e-01    4.527e-01  
  7.3500e-09    9.000e-01    4.534e-01    4.528e-01  
  7.3600e-09    9.000e-01    4.534e-01    4.528e-01  
  7.3700e-09    9.000e-01    4.534e-01    4.528e-01  
  7.3800e-09    9.000e-01    4.534e-01    4.528e-01  
  7.3900e-09    9.000e-01    4.534e-01    4.528e-01  
  7.4000e-09    9.000e-01    4.534e-01    4.528e-01  
  7.4100e-09    9.000e-01    4.534e-01    4.528e-01  
  7.4200e-09    9.000e-01    4.534e-01    4.528e-01  
  7.4300e-09    9.000e-01    4.534e-01    4.528e-01  
  7.4400e-09    9.000e-01    4.534e-01    4.528e-01  
  7.4500e-09    9.000e-01    4.534e-01    4.528e-01  
  7.4600e-09    9.000e-01    4.534e-01    4.528e-01  
  7.4700e-09    9.000e-01    4.533e-01    4.528e-01  
  7.4800e-09    9.000e-01    4.533e-01    4.528e-01  
  7.4900e-09    9.000e-01    4.533e-01    4.528e-01  
  7.5000e-09    9.000e-01    4.533e-01    4.528e-01  
  7.5100e-09    9.000e-01    4.533e-01    4.528e-01  
  7.5200e-09    9.000e-01    4.532e-01    4.528e-01  
  7.5300e-09    9.000e-01    4.526e-01    4.526e-01  
  7.5400e-09    9.000e-01    4.521e-01    4.524e-01  
  7.5500e-09    9.000e-01    4.531e-01    4.529e-01  
  7.5600e-09    9.000e-01    5.122e-01    4.648e-01  
  7.5700e-09    9.000e-01    6.147e-01    4.852e-01  
  7.5800e-09    9.000e-01    7.446e-01    4.976e-01  
  7.5900e-09    9.000e-01    8.319e-01    4.341e-01  
  7.6000e-09    9.000e-01    8.797e-01    3.199e-01  
  7.6100e-09    9.000e-01    8.911e-01    1.574e-01  
  7.6200e-09    9.000e-01    8.974e-01    6.749e-02  
  7.6300e-09    9.000e-01    8.995e-01    5.506e-02  
  7.6400e-09    9.000e-01    8.996e-01    5.521e-02  
  7.6500e-09    9.000e-01    8.997e-01    5.477e-02  
  7.6600e-09    9.000e-01    8.998e-01    5.486e-02  
  7.6700e-09    9.000e-01    8.998e-01    5.474e-02  
  7.6800e-09    9.000e-01    8.998e-01    5.460e-02  
  7.6900e-09    9.000e-01    8.998e-01    5.446e-02  
  7.7000e-09    9.000e-01    8.998e-01    5.438e-02  
  7.7100e-09    9.000e-01    8.999e-01    5.441e-02  
  7.7200e-09    9.000e-01    8.999e-01    5.444e-02  
  7.7300e-09    9.000e-01    8.999e-01    5.447e-02  
  7.7400e-09    9.000e-01    8.999e-01    5.450e-02  
  7.7500e-09    9.000e-01    8.999e-01    5.447e-02  
  7.7600e-09    9.000e-01    8.999e-01    5.443e-02  
  7.7700e-09    9.000e-01    8.999e-01    5.439e-02  
  7.7800e-09    9.000e-01    8.999e-01    5.436e-02  
  7.7900e-09    9.000e-01    8.999e-01    5.432e-02  
  7.8000e-09    9.000e-01    8.999e-01    5.428e-02  
  7.8100e-09    9.000e-01    8.999e-01    5.424e-02  
  7.8200e-09    9.000e-01    8.999e-01    5.425e-02  
  7.8300e-09    9.000e-01    8.999e-01    5.427e-02  
  7.8400e-09    9.000e-01    8.999e-01    5.428e-02  
  7.8500e-09    9.000e-01    9.000e-01    5.430e-02  
  7.8600e-09    9.000e-01    9.000e-01    5.432e-02  
  7.8700e-09    9.000e-01    9.000e-01    5.434e-02  
  7.8800e-09    9.000e-01    9.000e-01    5.436e-02  
  7.8900e-09    9.000e-01    9.000e-01    5.438e-02  
  7.9000e-09    9.000e-01    9.000e-01    5.439e-02  
  7.9100e-09    9.000e-01    9.000e-01    5.438e-02  
  7.9200e-09    9.000e-01    9.000e-01    5.437e-02  
  7.9300e-09    9.000e-01    9.000e-01    5.435e-02  
  7.9400e-09    9.000e-01    9.000e-01    5.434e-02  
  7.9500e-09    9.000e-01    9.000e-01    5.432e-02  
  7.9600e-09    9.000e-01    9.000e-01    5.431e-02  
  7.9700e-09    9.000e-01    9.000e-01    5.429e-02  
  7.9800e-09    9.000e-01    9.000e-01    5.428e-02  
  7.9900e-09    9.000e-01    9.000e-01    5.427e-02  
  8.0000e-09    9.000e-01    9.000e-01    5.425e-02  
  8.0100e-09    9.000e-01    9.000e-01    5.424e-02  
  8.0200e-09    9.000e-01    9.000e-01    5.422e-02  
  8.0300e-09    9.000e-01    9.000e-01    5.421e-02  
  8.0400e-09    9.000e-01    9.000e-01    5.420e-02  
  8.0500e-09    9.000e-01    9.000e-01    5.421e-02  
  8.0600e-09    9.000e-01    9.000e-01    5.422e-02  
  8.0700e-09    9.000e-01    9.000e-01    5.423e-02  
  8.0800e-09    9.000e-01    9.000e-01    5.424e-02  
  8.0900e-09    9.000e-01    9.000e-01    5.424e-02  
  8.1000e-09    9.000e-01    9.000e-01    5.425e-02  
  8.1100e-09    9.000e-01    9.000e-01    5.426e-02  
  8.1200e-09    9.000e-01    9.000e-01    5.427e-02  
  8.1300e-09    9.000e-01    9.000e-01    5.428e-02  
  8.1400e-09    9.000e-01    9.000e-01    5.429e-02  
  8.1500e-09    9.000e-01    9.000e-01    5.430e-02  
  8.1600e-09    9.000e-01    9.000e-01    5.431e-02  
  8.1700e-09    9.000e-01    9.000e-01    5.432e-02  
  8.1800e-09    9.000e-01    9.000e-01    5.432e-02  
  8.1900e-09    9.000e-01    9.000e-01    5.433e-02  
  8.2000e-09    9.000e-01    9.000e-01    5.434e-02  
  8.2100e-09    9.000e-01    9.000e-01    5.435e-02  
  8.2200e-09    9.000e-01    9.000e-01    5.435e-02  
  8.2300e-09    9.000e-01    9.000e-01    5.435e-02  
  8.2400e-09    9.000e-01    9.000e-01    5.434e-02  
  8.2500e-09    9.000e-01    9.000e-01    5.434e-02  
  8.2600e-09    9.000e-01    9.000e-01    5.433e-02  
  8.2700e-09    9.000e-01    9.000e-01    5.432e-02  
  8.2800e-09    9.000e-01    9.000e-01    5.432e-02  
  8.2900e-09    9.000e-01    9.000e-01    5.431e-02  
  8.3000e-09    9.000e-01    9.000e-01    5.431e-02  
  8.3100e-09    9.000e-01    9.000e-01    5.430e-02  
  8.3200e-09    9.000e-01    9.000e-01    5.429e-02  
  8.3300e-09    9.000e-01    9.000e-01    5.429e-02  
  8.3400e-09    9.000e-01    9.000e-01    5.428e-02  
  8.3500e-09    9.000e-01    9.000e-01    5.427e-02  
  8.3600e-09    9.000e-01    9.000e-01    5.427e-02  
  8.3700e-09    9.000e-01    9.000e-01    5.426e-02  
  8.3800e-09    9.000e-01    9.000e-01    5.426e-02  
  8.3900e-09    9.000e-01    9.000e-01    5.425e-02  
  8.4000e-09    9.000e-01    9.000e-01    5.424e-02  
  8.4100e-09    9.000e-01    9.000e-01    5.424e-02  
  8.4200e-09    9.000e-01    9.000e-01    5.423e-02  
  8.4300e-09    9.000e-01    9.000e-01    5.422e-02  
  8.4400e-09    9.000e-01    9.000e-01    5.422e-02  
  8.4500e-09    9.000e-01    9.000e-01    5.421e-02  
  8.4600e-09    9.000e-01    9.000e-01    5.421e-02  
  8.4700e-09    9.000e-01    9.000e-01    5.420e-02  
  8.4800e-09    9.000e-01    9.000e-01    5.419e-02  
  8.4900e-09    9.000e-01    9.000e-01    5.419e-02  
  8.5000e-09    9.000e-01    9.000e-01    5.419e-02  
  8.5100e-09    9.000e-01    9.000e-01    5.420e-02  
  8.5200e-09    9.000e-01    9.000e-01    5.420e-02  
  8.5300e-09    9.000e-01    9.000e-01    5.421e-02  
  8.5400e-09    9.000e-01    9.000e-01    5.421e-02  
  8.5500e-09    9.000e-01    9.000e-01    5.421e-02  
  8.5600e-09    9.000e-01    9.000e-01    5.422e-02  
  8.5700e-09    9.000e-01    9.000e-01    5.422e-02  
  8.5800e-09    9.000e-01    9.000e-01    5.423e-02  
  8.5900e-09    9.000e-01    9.000e-01    5.423e-02  
  8.6000e-09    9.000e-01    9.000e-01    5.424e-02  
  8.6100e-09    9.000e-01    9.000e-01    5.424e-02  
  8.6200e-09    9.000e-01    9.000e-01    5.424e-02  
  8.6300e-09    9.000e-01    9.000e-01    5.425e-02  
  8.6400e-09    9.000e-01    9.000e-01    5.425e-02  
  8.6500e-09    9.000e-01    9.000e-01    5.426e-02  
  8.6600e-09    9.000e-01    9.000e-01    5.426e-02  
  8.6700e-09    9.000e-01    9.000e-01    5.426e-02  
  8.6800e-09    9.000e-01    9.000e-01    5.427e-02  
  8.6900e-09    9.000e-01    9.000e-01    5.427e-02  
  8.7000e-09    9.000e-01    9.000e-01    5.428e-02  
  8.7100e-09    9.000e-01    9.000e-01    5.428e-02  
  8.7200e-09    9.000e-01    9.000e-01    5.429e-02  
  8.7300e-09    9.000e-01    9.000e-01    5.429e-02  
  8.7400e-09    9.000e-01    9.000e-01    5.429e-02  
  8.7500e-09    9.000e-01    9.000e-01    5.430e-02  
  8.7600e-09    9.000e-01    9.000e-01    5.430e-02  
  8.7700e-09    9.000e-01    9.000e-01    5.431e-02  
  8.7800e-09    9.000e-01    9.000e-01    5.431e-02  
  8.7900e-09    9.000e-01    9.000e-01    5.432e-02  
  8.8000e-09    9.000e-01    9.000e-01    5.432e-02  
  8.8100e-09    9.000e-01    9.000e-01    5.432e-02  
  8.8200e-09    9.000e-01    9.000e-01    5.433e-02  
  8.8300e-09    9.000e-01    9.000e-01    5.433e-02  
  8.8400e-09    9.000e-01    9.000e-01    5.433e-02  
  8.8500e-09    9.000e-01    9.000e-01    5.432e-02  
  8.8600e-09    9.000e-01    9.000e-01    5.432e-02  
  8.8700e-09    9.000e-01    9.000e-01    5.432e-02  
  8.8800e-09    9.000e-01    9.000e-01    5.432e-02  
  8.8900e-09    9.000e-01    9.000e-01    5.431e-02  
  8.9000e-09    9.000e-01    9.000e-01    5.431e-02  
  8.9100e-09    9.000e-01    9.000e-01    5.431e-02  
  8.9200e-09    9.000e-01    9.000e-01    5.431e-02  
  8.9300e-09    9.000e-01    9.000e-01    5.430e-02  
  8.9400e-09    9.000e-01    9.000e-01    5.430e-02  
  8.9500e-09    9.000e-01    9.000e-01    5.430e-02  
  8.9600e-09    9.000e-01    9.000e-01    5.429e-02  
  8.9700e-09    9.000e-01    9.000e-01    5.429e-02  
  8.9800e-09    9.000e-01    9.000e-01    5.429e-02  
  8.9900e-09    9.000e-01    9.000e-01    5.429e-02  
  9.0000e-09    9.000e-01    9.000e-01    5.428e-02  
  9.0100e-09    9.000e-01    9.000e-01    5.428e-02  
  9.0200e-09    9.000e-01    9.000e-01    5.428e-02  
  9.0300e-09    9.000e-01    9.000e-01    5.428e-02  
  9.0400e-09    9.000e-01    9.000e-01    5.427e-02  
  9.0500e-09    9.000e-01    9.000e-01    5.427e-02  
  9.0600e-09    9.000e-01    9.000e-01    5.427e-02  
  9.0700e-09    9.000e-01    9.000e-01    5.427e-02  
  9.0800e-09    9.000e-01    9.000e-01    5.426e-02  
  9.0900e-09    9.000e-01    9.000e-01    5.426e-02  
  9.1000e-09    9.000e-01    9.000e-01    5.426e-02  
  9.1100e-09    9.000e-01    9.000e-01    5.425e-02  
  9.1200e-09    9.000e-01    9.000e-01    5.425e-02  
  9.1300e-09    9.000e-01    9.000e-01    5.425e-02  
  9.1400e-09    9.000e-01    9.000e-01    5.425e-02  
  9.1500e-09    9.000e-01    9.000e-01    5.424e-02  
  9.1600e-09    9.000e-01    9.000e-01    5.424e-02  
  9.1700e-09    9.000e-01    9.000e-01    5.424e-02  
  9.1800e-09    9.000e-01    9.000e-01    5.424e-02  
  9.1900e-09    9.000e-01    9.000e-01    5.423e-02  
  9.2000e-09    9.000e-01    9.000e-01    5.423e-02  
  9.2100e-09    9.000e-01    9.000e-01    5.423e-02  
  9.2200e-09    9.000e-01    9.000e-01    5.422e-02  
  9.2300e-09    9.000e-01    9.000e-01    5.422e-02  
  9.2400e-09    9.000e-01    9.000e-01    5.422e-02  
  9.2500e-09    9.000e-01    9.000e-01    5.422e-02  
  9.2600e-09    9.000e-01    9.000e-01    5.421e-02  
  9.2700e-09    9.000e-01    9.000e-01    5.421e-02  
  9.2800e-09    9.000e-01    9.000e-01    5.421e-02  
  9.2900e-09    9.000e-01    9.000e-01    5.421e-02  
  9.3000e-09    9.000e-01    9.000e-01    5.420e-02  
  9.3100e-09    9.000e-01    9.000e-01    5.420e-02  
  9.3200e-09    9.000e-01    9.000e-01    5.420e-02  
  9.3300e-09    9.000e-01    9.000e-01    5.420e-02  
  9.3400e-09    9.000e-01    9.000e-01    5.420e-02  
  9.3500e-09    9.000e-01    9.000e-01    5.420e-02  
  9.3600e-09    9.000e-01    9.000e-01    5.421e-02  
  9.3700e-09    9.000e-01    9.000e-01    5.421e-02  
  9.3800e-09    9.000e-01    9.000e-01    5.421e-02  
  9.3900e-09    9.000e-01    9.000e-01    5.422e-02  
  9.4000e-09    9.000e-01    9.000e-01    5.422e-02  
  9.4100e-09    9.000e-01    9.000e-01    5.422e-02  
  9.4200e-09    9.000e-01    9.000e-01    5.422e-02  
  9.4300e-09    9.000e-01    9.000e-01    5.423e-02  
  9.4400e-09    9.000e-01    9.000e-01    5.423e-02  
  9.4500e-09    9.000e-01    9.000e-01    5.423e-02  
  9.4600e-09    9.000e-01    9.000e-01    5.423e-02  
  9.4700e-09    9.000e-01    9.000e-01    5.424e-02  
  9.4800e-09    9.000e-01    9.000e-01    5.424e-02  
  9.4900e-09    9.000e-01    9.000e-01    5.424e-02  
  9.5000e-09    9.000e-01    9.000e-01    5.425e-02  
  9.5100e-09    9.000e-01    9.000e-01    5.425e-02  
  9.5200e-09    9.000e-01    9.000e-01    5.425e-02  
  9.5300e-09    9.000e-01    9.000e-01    5.425e-02  
  9.5400e-09    9.000e-01    9.000e-01    5.426e-02  
  9.5500e-09    9.000e-01    9.000e-01    5.426e-02  
  9.5600e-09    9.000e-01    9.000e-01    5.426e-02  
  9.5700e-09    9.000e-01    9.000e-01    5.426e-02  
  9.5800e-09    9.000e-01    9.000e-01    5.427e-02  
  9.5900e-09    9.000e-01    9.000e-01    5.427e-02  
  9.6000e-09    9.000e-01    9.000e-01    5.427e-02  
  9.6100e-09    9.000e-01    9.000e-01    5.428e-02  
  9.6200e-09    9.000e-01    9.000e-01    5.428e-02  
  9.6300e-09    9.000e-01    9.000e-01    5.428e-02  
  9.6400e-09    9.000e-01    9.000e-01    5.428e-02  
  9.6500e-09    9.000e-01    9.000e-01    5.429e-02  
  9.6600e-09    9.000e-01    9.000e-01    5.429e-02  
  9.6700e-09    9.000e-01    9.000e-01    5.429e-02  
  9.6800e-09    9.000e-01    9.000e-01    5.429e-02  
  9.6900e-09    9.000e-01    9.000e-01    5.430e-02  
  9.7000e-09    9.000e-01    9.000e-01    5.430e-02  
  9.7100e-09    9.000e-01    9.000e-01    5.430e-02  
  9.7200e-09    9.000e-01    9.000e-01    5.431e-02  
  9.7300e-09    9.000e-01    9.000e-01    5.431e-02  
  9.7400e-09    9.000e-01    9.000e-01    5.431e-02  
  9.7500e-09    9.000e-01    9.000e-01    5.431e-02  
  9.7600e-09    9.000e-01    9.000e-01    5.432e-02  
  9.7700e-09    9.000e-01    9.000e-01    5.432e-02  
  9.7800e-09    9.000e-01    9.000e-01    5.432e-02  
  9.7900e-09    9.000e-01    9.000e-01    5.432e-02  
  9.8000e-09    9.000e-01    9.000e-01    5.433e-02  
  9.8100e-09    9.000e-01    9.000e-01    5.433e-02  
  9.8200e-09    9.000e-01    9.000e-01    5.433e-02  
  9.8300e-09    9.000e-01    9.000e-01    5.433e-02  
  9.8400e-09    9.000e-01    9.000e-01    5.432e-02  
  9.8500e-09    9.000e-01    9.000e-01    5.431e-02  
  9.8600e-09    9.000e-01    9.000e-01    5.430e-02  
  9.8700e-09    9.000e-01    9.000e-01    5.430e-02  
  9.8800e-09    9.000e-01    9.000e-01    5.429e-02  
  9.8900e-09    9.000e-01    9.000e-01    5.428e-02  
  9.9000e-09    9.000e-01    9.000e-01    5.427e-02  
  9.9100e-09    9.000e-01    9.000e-01    5.426e-02  
  9.9200e-09    9.000e-01    9.000e-01    5.426e-02  
  9.9300e-09    9.000e-01    9.000e-01    5.425e-02  
  9.9400e-09    9.000e-01    9.000e-01    5.424e-02  
  9.9500e-09    9.000e-01    9.000e-01    5.423e-02  
  9.9600e-09    9.000e-01    9.000e-01    5.422e-02  
  9.9700e-09    9.000e-01    9.000e-01    5.422e-02  
  9.9800e-09    9.000e-01    9.000e-01    5.421e-02  
  9.9900e-09    9.000e-01    9.000e-01    5.420e-02  
  1.0000e-08    9.000e-01    9.000e-01    5.419e-02  
y
-----------------------------------------------

          ***** job concluded
1****** HSPICE -- H-2013.03 64-BIT (Mar  7 2013) win64 ******                   
 ******  
 'inverter'

  ******  job statistics summary tnom=  25.000 temp=  25.000 *****

  ******  HSPICE Threads Information  ******

  Command Line Threads Count :     1
  Available CPU Count        :     4
  Actual Threads Count       :     1


  ******  Circuit Statistics  ******
  # nodes       =     403 # elements   =     914
  # resistors   =     168 # capacitors =     406 # inductors   =       0
  # mutual_inds =       0 # vccs       =     112 # vcvs        =     196
  # cccs        =       0 # ccvs       =       0 # volt_srcs   =      32
  # curr_srcs   =       0 # diodes     =       0 # bjts        =       0
  # jfets       =       0 # mosfets    =       0 # U elements  =       0
  # T elements  =       0 # W elements =       0 # B elements  =       0
  # S elements  =       0 # P elements =       0 # va device   =       0
  # vector_srcs =       0 # N elements =       0


  ******  Runtime Statistics (seconds)  ******

  analysis           time    # points   tot. iter  conv.iter
  op point           0.34           1          19
  transient          3.16        1001         205          66 rev=         5
  readin             0.05
  errchk             0.23
  setup              0.00
  output             0.02


           peak memory used         49.97 megabytes
           total cpu time            3.81 seconds
           total elapsed time        3.82 seconds
           job started at     11:46:17 01/20/2018
           job ended   at     11:46:20 01/20/2018


  lic: Release hspice token(s) 
 lic: total license checkout elapse time:        0.02(s)
